@<TRIPOS>MOLECULE
1-(3-Chloro-4-methoxy-benzenesulfonyl)-piperidine-4-carboxylic acid diethylamide
50 51 1 0 0 
SMALL
USER_CHARGES


@<TRIPOS>ATOM
  1 CL       3.0100    -0.4090     3.4380 Cl    1 <1>  -0.1770 
  2 C        3.1390    -0.9870     1.7910 C.ar  1 <1>   0.1770 
  3 C        2.7170    -2.2690     1.4610 C.ar  1 <1>   0.0830 
  4 C        3.6710    -0.1350     0.8430 C.ar  1 <1>  -0.1500 
  5 O        2.2050    -3.0570     2.4420 O.3   1 <1>  -0.3630 
  6 C        2.8420    -2.6820     0.1370 C.ar  1 <1>  -0.1500 
  7 C        3.8050    -0.5420    -0.4790 C.ar  1 <1>  -0.0090 
  8 C        1.7290    -4.3590     2.1800 C.3   1 <1>   0.0400 
  9 C        3.3770    -1.8240    -0.8110 C.ar  1 <1>  -0.1500 
 10 S        4.5050     0.5710    -1.7290 S.o2  1 <1>   1.4470 
 11 O        5.0100    -0.1970    -2.8470 O.2   1 <1>  -0.6500 
 12 O        3.5690     1.6470    -1.9730 O.2   1 <1>  -0.6500 
 13 N        5.8540     1.2310    -0.9410 N.am  1 <1>  -0.8490 
 14 C        6.3030     2.4680    -1.5860 C.3   1 <1>   0.1960 
 15 C        6.9470     0.2640    -0.8160 C.3   1 <1>   0.1960 
 16 C        7.4170     3.1180    -0.7620 C.3   1 <1>  -0.1600 
 17 C        8.0750     0.8450     0.0400 C.3   1 <1>  -0.1600 
 18 C        8.6080     2.1600    -0.5550 C.3   1 <1>  -0.0190 
 19 C        9.7240     2.7590     0.3170 C.2   1 <1>   0.5690 
 20 O        9.4420     3.7130     1.0060 O.2   1 <1>  -0.5700 
 21 N       11.0020     2.2350     0.3270 N.am  1 <1>  -0.6600 
 22 C       12.0440     2.8800     1.1770 C.3   1 <1>   0.1400 
 23 C       11.5090     1.1630    -0.5800 C.3   1 <1>   0.1400 
 24 C       11.9060     2.4150     2.6270 C.3   1 <1>  -0.2400 
 25 C       11.9160    -0.0760     0.2160 C.3   1 <1>  -0.2400 
 26 H        3.9850     0.8520     1.1370 H     1 <1>   0.1500 
 27 H        2.5290    -3.6610    -0.1740 H     1 <1>   0.1500 
 28 H        1.3670    -4.7730     3.1040 H     1 <1>   0.0800 
 29 H        2.5390    -4.9590     1.8050 H     1 <1>   0.0800 
 30 H        0.9260    -4.3020     1.4670 H     1 <1>   0.0800 
 31 H        3.4660    -2.1580    -1.8330 H     1 <1>   0.1500 
 32 H        5.4820     3.1630    -1.6550 H     1 <1>   0.0800 
 33 H        6.6490     2.2560    -2.5850 H     1 <1>   0.0800 
 34 H        7.3250     0.0060    -1.7920 H     1 <1>   0.0800 
 35 H        6.5850    -0.6370    -0.3480 H     1 <1>   0.0800 
 36 H        7.0090     3.4100     0.1910 H     1 <1>   0.0800 
 37 H        7.7530     4.0110    -1.2580 H     1 <1>   0.0800 
 38 H        8.8670     0.1240     0.1110 H     1 <1>   0.0800 
 39 H        7.7050     1.0220     1.0350 H     1 <1>   0.0800 
 40 H        9.0110     1.9690    -1.5310 H     1 <1>   0.0800 
 41 H       11.9290     3.9510     1.1340 H     1 <1>   0.0800 
 42 H       13.0260     2.6420     0.8070 H     1 <1>   0.0800 
 43 H       12.3580     1.5360    -1.1280 H     1 <1>   0.0800 
 44 H       10.7660     0.8780    -1.2990 H     1 <1>   0.0800 
 45 H       10.9440     2.6970     3.0160 H     1 <1>   0.0800 
 46 H       12.6620     2.8860     3.2290 H     1 <1>   0.0800 
 47 H       12.0220     1.3510     2.7050 H     1 <1>   0.0800 
 48 H       12.7850     0.1260     0.8140 H     1 <1>   0.0800 
 49 H       12.1590    -0.8750    -0.4610 H     1 <1>   0.0800 
 50 H       11.1100    -0.3980     0.8510 H     1 <1>   0.0800 
@<TRIPOS>BOND
  1   1   2  1   
  2   2   3  ar  
  3   2   4  ar  
  4   3   5  1   
  5   3   6  ar  
  6   4   7  ar  
  7   4  26  1   
  8   5   8  1   
  9   6   9  ar  
 10   6  27  1   
 11   7   9  ar  
 12   7  10  1   
 13   8  28  1   
 14   8  29  1   
 15   8  30  1   
 16   9  31  1   
 17  10  11  2   
 18  10  12  2   
 19  10  13  am  
 20  13  14  1   
 21  13  15  1   
 22  14  16  1   
 23  14  32  1   
 24  14  33  1   
 25  15  17  1   
 26  15  34  1   
 27  15  35  1   
 28  16  18  1   
 29  16  36  1   
 30  16  37  1   
 31  17  18  1   
 32  17  38  1   
 33  17  39  1   
 34  18  19  1   
 35  18  40  1   
 36  19  20  2   
 37  19  21  am  
 38  21  22  1   
 39  21  23  1   
 40  22  24  1   
 41  22  41  1   
 42  22  42  1   
 43  23  25  1   
 44  23  43  1   
 45  23  44  1   
 46  24  45  1   
 47  24  46  1   
 48  24  47  1   
 49  25  48  1   
 50  25  49  1   
 51  25  50  1   
@<TRIPOS>SUBSTRUCTURE
  1 ****  15 GROUP 4 **** **** 0

# MOE 2024.06 (io_trps.svl 2023.06)
