@<TRIPOS>MOLECULE
Pyridine-2-carboxylic acid (2-propionylamino-ethyl)-amide
31 31 1 0 0 
SMALL
USER_CHARGES


@<TRIPOS>ATOM
  1 O       -0.9480    -0.0020     0.8180 O.2   1 <1>  -0.5700 
  2 C       -1.7000     0.6560     0.1190 C.2   1 <1>   0.5440 
  3 N       -2.6780    -0.0160    -0.5680 N.am  1 <1>  -0.7300 
  4 C       -1.5790     2.1130     0.0100 C.ar  1 <1>   0.3960 
  5 C       -2.8380    -1.4890    -0.6310 C.3   1 <1>   0.1400 
  6 N       -2.4520     2.7810    -0.7690 N.ar  1 <1>  -0.6200 
  7 C       -0.5710     2.7830     0.7070 C.ar  1 <1>  -0.1500 
  8 C       -3.4690    -2.0130     0.6620 C.3   1 <1>   0.1400 
  9 C       -2.3100     4.0920    -0.8420 C.ar  1 <1>   0.1600 
 10 C       -0.4340     4.1510     0.6210 C.ar  1 <1>  -0.1500 
 11 N       -3.7130    -3.4750     0.5580 N.am  1 <1>  -0.7300 
 12 C       -1.3350     4.8160    -0.1790 C.ar  1 <1>  -0.1500 
 13 C       -4.8770    -4.1420     0.3880 C.2   1 <1>   0.5690 
 14 O       -4.8650    -5.3460     0.3610 O.2   1 <1>  -0.5700 
 15 C       -6.1890    -3.3790     0.2330 C.3   1 <1>  -0.0990 
 16 C       -7.3890    -4.2460    -0.1890 C.3   1 <1>  -0.2400 
 17 H       -3.2870     0.5560    -1.1640 H     1 <1>   0.3700 
 18 H       -1.8710    -1.9410    -0.7670 H     1 <1>   0.0800 
 19 H       -3.4630    -1.7400    -1.4710 H     1 <1>   0.0800 
 20 H        0.1090     2.2170     1.3190 H     1 <1>   0.1500 
 21 H       -4.3920    -1.4950     0.8500 H     1 <1>   0.0800 
 22 H       -2.8010    -1.8280     1.4870 H     1 <1>   0.0800 
 23 H       -3.0080     4.6250    -1.4650 H     1 <1>   0.1500 
 24 H        0.3400     4.6750     1.1550 H     1 <1>   0.1500 
 25 H       -2.8880    -4.0710     0.6630 H     1 <1>   0.3700 
 26 H       -1.2850     5.8850    -0.2910 H     1 <1>   0.1500 
 27 H       -6.0500    -2.6100    -0.5030 H     1 <1>   0.0800 
 28 H       -6.4140    -2.9090     1.1720 H     1 <1>   0.0800 
 29 H       -7.1870    -4.7250    -1.1310 H     1 <1>   0.0800 
 30 H       -8.2720    -3.6410    -0.2880 H     1 <1>   0.0800 
 31 H       -7.5720    -5.0090     0.5480 H     1 <1>   0.0800 
@<TRIPOS>BOND
  1   1   2  2   
  2   2   3  am  
  3   2   4  1   
  4   3   5  1   
  5   3  17  1   
  6   4   6  ar  
  7   4   7  ar  
  8   5   8  1   
  9   5  18  1   
 10   5  19  1   
 11   6   9  ar  
 12   7  10  ar  
 13   7  20  1   
 14   8  11  1   
 15   8  21  1   
 16   8  22  1   
 17   9  12  ar  
 18   9  23  1   
 19  10  12  ar  
 20  10  24  1   
 21  11  13  am  
 22  11  25  1   
 23  12  26  1   
 24  13  14  2   
 25  13  15  1   
 26  15  16  1   
 27  15  27  1   
 28  15  28  1   
 29  16  29  1   
 30  16  30  1   
 31  16  31  1   
@<TRIPOS>SUBSTRUCTURE
  1 ****   3 GROUP 4 **** **** 0

# MOE 2024.06 (io_trps.svl 2023.06)
