@<TRIPOS>MOLECULE
2-(4-Ethylamino-6-morpholin-4-yl-[1,3,5]triazin-2-ylsulfanyl)-N-phenyl-acetamide
48 50 1 0 0 
SMALL
USER_CHARGES


@<TRIPOS>ATOM
  1 S        0.1950     0.2140    -0.2310 S.3   1 <1>  -0.3320 
  2 C        0.2690    -1.5680    -0.1860 C.ar  1 <1>   0.7220 
  3 C        1.6750     0.7610    -1.2100 C.3   1 <1>   0.1310 
  4 N        1.3920    -2.1140    -0.5500 N.ar  1 <1>  -0.6200 
  5 N       -0.8200    -2.1460     0.2140 N.ar  1 <1>  -0.6200 
  6 C        2.9500     0.7490    -0.3810 C.2   1 <1>   0.5690 
  7 C        1.3630    -3.4200    -0.4530 C.ar  1 <1>   0.7200 
  8 C       -0.7180    -3.4490     0.2170 C.ar  1 <1>   0.7200 
  9 O        3.2730     1.7580     0.1960 O.2   1 <1>  -0.5700 
 10 N        3.7080    -0.3890    -0.3740 N.am  1 <1>  -0.5470 
 11 N        0.3350    -4.1450    -0.0990 N.ar  1 <1>  -0.6200 
 12 N        2.5330    -4.0650    -0.7250 N.pl3 1 <1>  -0.8380 
 13 N       -1.7930    -4.1760     0.5900 N.pl3 1 <1>  -0.8690 
 14 C        4.9680    -0.6120     0.1870 C.ar  1 <1>   0.1170 
 15 C        3.5720    -4.0540     0.3480 C.3   1 <1>   0.2090 
 16 C        2.4730    -5.3800    -1.4350 C.3   1 <1>   0.2090 
 17 C       -3.0300    -3.6410     1.1810 C.3   1 <1>   0.2090 
 18 C        5.9080    -1.3450    -0.5250 C.ar  1 <1>  -0.1500 
 19 C        5.3040    -0.1440     1.4520 C.ar  1 <1>  -0.1500 
 20 C        4.9140    -4.6150    -0.1600 C.3   1 <1>   0.1200 
 21 C        3.8760    -5.8530    -1.8540 C.3   1 <1>   0.1200 
 22 C       -4.0950    -4.7270     1.1260 C.3   1 <1>  -0.2400 
 23 C        7.1510    -1.6200     0.0170 C.ar  1 <1>  -0.1500 
 24 C        6.5450    -0.4160     1.9980 C.ar  1 <1>  -0.1500 
 25 O        4.7450    -5.8700    -0.7560 O.3   1 <1>  -0.5600 
 26 C        7.4700    -1.1580     1.2830 C.ar  1 <1>  -0.1500 
 27 H        1.4700     1.7620    -1.5390 H     1 <1>   0.0800 
 28 H        1.7590     0.1140    -2.0630 H     1 <1>   0.0800 
 29 H        3.2520    -1.2140    -0.7830 H     1 <1>   0.3700 
 30 H       -1.6170    -5.1730     0.7020 H     1 <1>   0.4000 
 31 H        3.2340    -4.6560     1.1740 H     1 <1>   0.0800 
 32 H        3.7160    -3.0510     0.7100 H     1 <1>   0.0800 
 33 H        1.8490    -5.2890    -2.3060 H     1 <1>   0.0800 
 34 H        2.0350    -6.1200    -0.7870 H     1 <1>   0.0800 
 35 H       -3.3560    -2.7750     0.6260 H     1 <1>   0.0800 
 36 H       -2.8440    -3.3470     2.2010 H     1 <1>   0.0800 
 37 H        5.6660    -1.6950    -1.5120 H     1 <1>   0.1500 
 38 H        4.5880     0.4360     2.0080 H     1 <1>   0.1500 
 39 H        5.6010    -4.7270     0.6600 H     1 <1>   0.0800 
 40 H        5.3490    -3.9540    -0.8860 H     1 <1>   0.0800 
 41 H        4.2830    -5.2030    -2.6080 H     1 <1>   0.0800 
 42 H        3.8260    -6.8520    -2.2480 H     1 <1>   0.0800 
 43 H       -4.2750    -5.0180     0.1070 H     1 <1>   0.0800 
 44 H       -5.0130    -4.3520     1.5410 H     1 <1>   0.0800 
 45 H       -3.7870    -5.5840     1.6990 H     1 <1>   0.0800 
 46 H        7.8730    -2.1890    -0.5430 H     1 <1>   0.1500 
 47 H        6.7920    -0.0470     2.9790 H     1 <1>   0.1500 
 48 H        8.4360    -1.3690     1.7080 H     1 <1>   0.1500 
@<TRIPOS>BOND
  1   1   2  1   
  2   1   3  1   
  3   2   4  ar  
  4   2   5  ar  
  5   3   6  1   
  6   3  27  1   
  7   3  28  1   
  8   4   7  ar  
  9   5   8  ar  
 10   6   9  2   
 11   6  10  am  
 12   7  11  ar  
 13   7  12  1   
 14   8  11  ar  
 15   8  13  1   
 16  10  14  1   
 17  10  29  1   
 18  12  15  1   
 19  12  16  1   
 20  13  17  1   
 21  13  30  1   
 22  14  18  ar  
 23  14  19  ar  
 24  15  20  1   
 25  15  31  1   
 26  15  32  1   
 27  16  21  1   
 28  16  33  1   
 29  16  34  1   
 30  17  22  1   
 31  17  35  1   
 32  17  36  1   
 33  18  23  ar  
 34  18  37  1   
 35  19  24  ar  
 36  19  38  1   
 37  20  25  1   
 38  20  39  1   
 39  20  40  1   
 40  21  25  1   
 41  21  41  1   
 42  21  42  1   
 43  22  43  1   
 44  22  44  1   
 45  22  45  1   
 46  23  26  ar  
 47  23  46  1   
 48  24  26  ar  
 49  24  47  1   
 50  26  48  1   
@<TRIPOS>SUBSTRUCTURE
  1 ****   4 GROUP 4 **** **** 0

# MOE 2024.06 (io_trps.svl 2023.06)
