@<TRIPOS>MOLECULE
3-[3-(2-Fluoro-phenyl)-[1,2,4]oxadiazol-5-yl]-N-propyl-propionamide
36 37 1 0 0 
SMALL
USER_CHARGES


@<TRIPOS>ATOM
  1 F        0.0750    -0.2350    -0.2100 F     1 <1>  -0.1900 
  2 C        0.4450    -1.4880    -0.2330 C.ar  1 <1>   0.1900 
  3 C        1.7260    -1.8420     0.1920 C.ar  1 <1>   0.0540 
  4 C       -0.4880    -2.4090    -0.6720 C.ar  1 <1>  -0.1500 
  5 C        2.7100    -0.8810     0.6400 C.2   1 <1>   0.4620 
  6 C        2.0260    -3.2060     0.1700 C.ar  1 <1>  -0.1500 
  7 C       -0.1530    -3.7510    -0.6880 C.ar  1 <1>  -0.1500 
  8 N        3.4770    -1.0340     1.6600 N.2   1 <1>  -0.4100 
  9 N        2.9540     0.2680     0.0040 N.2   1 <1>  -0.5650 
 10 C        1.1050    -4.1460    -0.2630 C.ar  1 <1>  -0.1500 
 11 O        4.2370     0.0120     1.7440 O.3   1 <1>  -0.0190 
 12 C        3.8770     0.7500     0.7260 C.2   1 <1>   0.2980 
 13 C        4.5830     2.0700     0.4970 C.3   1 <1>   0.0200 
 14 C        6.0080     1.8400    -0.0290 C.3   1 <1>  -0.0990 
 15 C        6.7840     3.1270    -0.2460 C.2   1 <1>   0.5690 
 16 O        6.2550     4.1900    -0.0440 O.2   1 <1>  -0.5700 
 17 N        8.0720     3.0900    -0.6540 N.am  1 <1>  -0.7300 
 18 C        8.9240     1.9220    -0.9610 C.3   1 <1>   0.1400 
 19 C        9.9070     1.7070     0.1900 C.3   1 <1>  -0.1600 
 20 C       10.8030     0.4900    -0.0630 C.3   1 <1>  -0.2400 
 21 H       -1.4600    -2.0780    -0.9920 H     1 <1>   0.1500 
 22 H        2.9990    -3.5300     0.4980 H     1 <1>   0.1500 
 23 H       -0.8650    -4.4840    -1.0270 H     1 <1>   0.1500 
 24 H        1.3680    -5.1900    -0.2710 H     1 <1>   0.1500 
 25 H        4.6120     2.6190     1.4210 H     1 <1>   0.0800 
 26 H        4.0240     2.6480    -0.2180 H     1 <1>   0.0800 
 27 H        5.9520     1.3130    -0.9640 H     1 <1>   0.0800 
 28 H        6.5500     1.2330     0.6720 H     1 <1>   0.0800 
 29 H        8.5220     4.0040    -0.7420 H     1 <1>   0.3700 
 30 H        9.4610     2.1080    -1.8760 H     1 <1>   0.0800 
 31 H        8.3210     1.0420    -1.0980 H     1 <1>   0.0800 
 32 H        9.3600     1.5560     1.1040 H     1 <1>   0.0800 
 33 H       10.5250     2.5820     0.3020 H     1 <1>   0.0800 
 34 H       10.2100    -0.4040    -0.1560 H     1 <1>   0.0800 
 35 H       11.4860     0.3600     0.7580 H     1 <1>   0.0800 
 36 H       11.3760     0.6220    -0.9650 H     1 <1>   0.0800 
@<TRIPOS>BOND
  1   1   2  1   
  2   2   3  ar  
  3   2   4  ar  
  4   3   5  1   
  5   3   6  ar  
  6   4   7  ar  
  7   4  21  1   
  8   5   8  2   
  9   5   9  1   
 10   6  10  ar  
 11   6  22  1   
 12   7  10  ar  
 13   7  23  1   
 14   8  11  1   
 15   9  12  2   
 16  10  24  1   
 17  11  12  1   
 18  12  13  1   
 19  13  14  1   
 20  13  25  1   
 21  13  26  1   
 22  14  15  1   
 23  14  27  1   
 24  14  28  1   
 25  15  16  2   
 26  15  17  am  
 27  17  18  1   
 28  17  29  1   
 29  18  19  1   
 30  18  30  1   
 31  18  31  1   
 32  19  20  1   
 33  19  32  1   
 34  19  33  1   
 35  20  34  1   
 36  20  35  1   
 37  20  36  1   
@<TRIPOS>SUBSTRUCTURE
  1 ****  12 GROUP 4 **** **** 0

# MOE 2024.06 (io_trps.svl 2023.06)
