@<TRIPOS>MOLECULE
1-(4-Methoxy-3-methyl-benzenesulfonyl)-piperidine-4-carboxylic acid ethylamide
47 48 1 0 0 
SMALL
USER_CHARGES


@<TRIPOS>ATOM
  1 S       -0.1380    -0.0270     2.3310 S.o2  1 <1>   1.4470 
  2 O        0.2330    -1.1110     3.2150 O.2   1 <1>  -0.6500 
  3 O       -0.5510     1.2390     2.9020 O.2   1 <1>  -0.6500 
  4 N        1.2070     0.3060     1.3530 N.am  1 <1>  -0.8490 
  5 C       -1.3740    -0.6200     1.1430 C.ar  1 <1>  -0.0090 
  6 C        2.4270     0.4410     2.1520 C.3   1 <1>   0.1960 
  7 C        0.9870     1.4780     0.4990 C.3   1 <1>   0.1960 
  8 C       -2.6490    -0.0690     1.0890 C.ar  1 <1>  -0.1500 
  9 C       -1.0710    -1.6410     0.2520 C.ar  1 <1>  -0.1500 
 10 C        3.6470     0.5910     1.2390 C.3   1 <1>  -0.1600 
 11 C        2.1540     1.6500    -0.4740 C.3   1 <1>  -0.1600 
 12 C       -3.5950    -0.5090     0.1780 C.ar  1 <1>  -0.1430 
 13 C       -2.0020    -2.0960    -0.6650 C.ar  1 <1>  -0.1500 
 14 C        3.4890     1.7800     0.2770 C.3   1 <1>  -0.0190 
 15 C       -3.2730    -1.5310    -0.7100 C.ar  1 <1>   0.0830 
 16 C       -4.9780     0.1270     0.1570 C.3   1 <1>  -0.0970 
 17 C        4.6740     1.8850    -0.6810 C.2   1 <1>   0.5690 
 18 O       -4.2280    -1.9310    -1.5880 O.3   1 <1>  -0.3630 
 19 O        4.8400     1.0310    -1.5180 O.2   1 <1>  -0.5700 
 20 N        5.5150     2.9460    -0.5600 N.am  1 <1>  -0.7300 
 21 C       -4.0010    -2.9740    -2.5100 C.3   1 <1>   0.0400 
 22 C        6.7110     3.1760    -1.3940 C.3   1 <1>   0.1400 
 23 C        7.8840     3.5060    -0.4790 C.3   1 <1>  -0.2400 
 24 H        2.5630    -0.4380     2.7610 H     1 <1>   0.0800 
 25 H        2.3420     1.2930     2.8070 H     1 <1>   0.0800 
 26 H        0.8830     2.3630     1.1070 H     1 <1>   0.0800 
 27 H        0.0790     1.3510    -0.0670 H     1 <1>   0.0800 
 28 H       -2.8990     0.7210     1.7770 H     1 <1>   0.1500 
 29 H       -0.0890    -2.0840     0.2790 H     1 <1>   0.1500 
 30 H        3.7700    -0.3180     0.6750 H     1 <1>   0.0800 
 31 H        4.5290     0.7240     1.8400 H     1 <1>   0.0800 
 32 H        1.9910     2.5230    -1.0790 H     1 <1>   0.0800 
 33 H        2.1850     0.7970    -1.1320 H     1 <1>   0.0800 
 34 H       -1.7180    -2.8870    -1.3320 H     1 <1>   0.1500 
 35 H        3.4510     2.6800     0.8640 H     1 <1>   0.0800 
 36 H       -5.0660     0.8970     0.9010 H     1 <1>   0.0800 
 37 H       -5.7250    -0.6230     0.3480 H     1 <1>   0.0800 
 38 H       -5.1650     0.5590    -0.8100 H     1 <1>   0.0800 
 39 H        5.3420     3.6520     0.1540 H     1 <1>   0.3700 
 40 H       -4.8980    -3.1110    -3.0860 H     1 <1>   0.0800 
 41 H       -3.7740    -3.8750    -1.9690 H     1 <1>   0.0800 
 42 H       -3.1890    -2.6960    -3.1580 H     1 <1>   0.0800 
 43 H        6.5230     3.9920    -2.0710 H     1 <1>   0.0800 
 44 H        6.9330     2.2950    -1.9750 H     1 <1>   0.0800 
 45 H        7.6850     4.3990     0.0850 H     1 <1>   0.0800 
 46 H        8.7660     3.6670    -1.0720 H     1 <1>   0.0800 
 47 H        8.0720     2.6870     0.1920 H     1 <1>   0.0800 
@<TRIPOS>BOND
  1   1   2  2   
  2   1   3  2   
  3   1   4  am  
  4   1   5  1   
  5   4   6  1   
  6   4   7  1   
  7   5   8  ar  
  8   5   9  ar  
  9   6  10  1   
 10   6  24  1   
 11   6  25  1   
 12   7  11  1   
 13   7  26  1   
 14   7  27  1   
 15   8  12  ar  
 16   8  28  1   
 17   9  13  ar  
 18   9  29  1   
 19  10  14  1   
 20  10  30  1   
 21  10  31  1   
 22  11  14  1   
 23  11  32  1   
 24  11  33  1   
 25  12  15  ar  
 26  12  16  1   
 27  13  15  ar  
 28  13  34  1   
 29  14  17  1   
 30  14  35  1   
 31  15  18  1   
 32  16  36  1   
 33  16  37  1   
 34  16  38  1   
 35  17  19  2   
 36  17  20  am  
 37  18  21  1   
 38  20  22  1   
 39  20  39  1   
 40  21  40  1   
 41  21  41  1   
 42  21  42  1   
 43  22  23  1   
 44  22  43  1   
 45  22  44  1   
 46  23  45  1   
 47  23  46  1   
 48  23  47  1   
@<TRIPOS>SUBSTRUCTURE
  1 ****   4 GROUP 4 **** **** 0

# MOE 2024.06 (io_trps.svl 2023.06)
