@<TRIPOS>MOLECULE
3-(3-Methoxy-phenoxymethyl)-piperidine
36 37 1 0 0 
SMALL
USER_CHARGES


@<TRIPOS>ATOM
  1 O        0.0550     0.3480     0.0880 O.3   1 <1>  -0.3630 
  2 C        1.2520     0.9440    -0.1440 C.ar  1 <1>   0.0830 
  3 C       -1.1500     1.0710    -0.0060 C.3   1 <1>   0.1200 
  4 C        2.3820     0.1570     0.0140 C.ar  1 <1>  -0.1500 
  5 C        1.3880     2.2780    -0.5260 C.ar  1 <1>  -0.1500 
  6 C       -2.3040     0.1090     0.2990 C.3   1 <1>  -0.0800 
  7 C        3.6470     0.6900    -0.2110 C.ar  1 <1>   0.0830 
  8 C        2.6460     2.8080    -0.7500 C.ar  1 <1>  -0.1500 
  9 C       -2.1590    -1.1690    -0.5400 C.3   1 <1>   0.3430 
 10 C       -3.6630     0.7870     0.0470 C.3   1 <1>  -0.1600 
 11 O        4.7990    -0.0130    -0.0760 O.3   1 <1>  -0.3630 
 12 C        3.7700     2.0160    -0.5930 C.ar  1 <1>  -0.1500 
 13 N       -3.3050    -2.0900    -0.2850 N.4   1 <1>  -0.9060 
 14 C       -4.8140    -0.2120     0.2420 C.3   1 <1>  -0.1600 
 15 C        4.7930    -1.3570     0.3510 C.3   1 <1>   0.0400 
 16 C       -4.6240    -1.4770    -0.5990 C.3   1 <1>   0.3430 
 17 H       -1.2280     1.4650    -1.0050 H     1 <1>   0.0800 
 18 H       -1.1220     1.8780     0.7080 H     1 <1>   0.0800 
 19 H        2.2530    -0.8630     0.3120 H     1 <1>   0.1500 
 20 H        0.5380     2.9200    -0.6550 H     1 <1>   0.1500 
 21 H       -2.2340    -0.1530     1.3410 H     1 <1>   0.0800 
 22 H        2.7550     3.8370    -1.0460 H     1 <1>   0.1500 
 23 H       -1.2290    -1.6560    -0.2890 H     1 <1>   0.0800 
 24 H       -2.1260    -0.9060    -1.5860 H     1 <1>   0.0800 
 25 H       -3.6970     1.1740    -0.9580 H     1 <1>   0.0800 
 26 H       -3.7890     1.6180     0.7220 H     1 <1>   0.0800 
 27 H        4.7510     2.4210    -0.7660 H     1 <1>   0.1500 
 28 H       -3.2900    -2.3590     0.7060 H     1 <1>   0.4500 
 29 H       -3.1800    -2.9510    -0.8320 H     1 <1>   0.4500 
 30 H       -5.7420     0.2580    -0.0370 H     1 <1>   0.0800 
 31 H       -4.8950    -0.4810     1.2820 H     1 <1>   0.0800 
 32 H        5.8120    -1.6960     0.4000 H     1 <1>   0.0800 
 33 H        4.2460    -1.9480    -0.3620 H     1 <1>   0.0800 
 34 H        4.3420    -1.4110     1.3260 H     1 <1>   0.0800 
 35 H       -5.4190    -2.1750    -0.3890 H     1 <1>   0.0800 
 36 H       -4.6670    -1.2200    -1.6460 H     1 <1>   0.0800 
@<TRIPOS>BOND
  1   1   2  1   
  2   1   3  1   
  3   2   4  ar  
  4   2   5  ar  
  5   3   6  1   
  6   3  17  1   
  7   3  18  1   
  8   4   7  ar  
  9   4  19  1   
 10   5   8  ar  
 11   5  20  1   
 12   6   9  1   
 13   6  10  1   
 14   6  21  1   
 15   7  11  1   
 16   7  12  ar  
 17   8  12  ar  
 18   8  22  1   
 19   9  13  1   
 20   9  23  1   
 21   9  24  1   
 22  10  14  1   
 23  10  25  1   
 24  10  26  1   
 25  11  15  1   
 26  12  27  1   
 27  13  16  1   
 28  13  28  1   
 29  13  29  1   
 30  14  16  1   
 31  14  30  1   
 32  14  31  1   
 33  15  32  1   
 34  15  33  1   
 35  15  34  1   
 36  16  35  1   
 37  16  36  1   
@<TRIPOS>SUBSTRUCTURE
  1 ****   1 GROUP 4 **** **** 0

# MOE 2024.06 (io_trps.svl 2023.06)
