@<TRIPOS>MOLECULE
1-(4-Methoxy-3-methyl-benzenesulfonyl)-piperidine-4-carboxylic acid methylamide
44 45 1 0 0 
SMALL
USER_CHARGES


@<TRIPOS>ATOM
  1 S       -0.1270    -0.1000     2.1220 S.o2  1 <1>   1.4470 
  2 O        0.2790    -1.1870     2.9860 O.2   1 <1>  -0.6500 
  3 O       -0.5910     1.1370     2.7140 O.2   1 <1>  -0.6500 
  4 N        1.2100     0.3020     1.1590 N.am  1 <1>  -0.8490 
  5 C       -1.3320    -0.7160     0.9140 C.ar  1 <1>  -0.0090 
  6 C        2.4210     0.4640     1.9670 C.3   1 <1>   0.1960 
  7 C        0.9520     1.4830     0.3290 C.3   1 <1>   0.1960 
  8 C       -2.6310    -0.2220     0.8720 C.ar  1 <1>  -0.1500 
  9 C       -0.9820    -1.6980    -0.0040 C.ar  1 <1>  -0.1500 
 10 C        3.6390     0.6760     1.0630 C.3   1 <1>  -0.1600 
 11 C        2.1160     1.7160    -0.6360 C.3   1 <1>  -0.1600 
 12 C       -3.5550    -0.6800    -0.0540 C.ar  1 <1>  -0.1430 
 13 C       -1.8900    -2.1690    -0.9350 C.ar  1 <1>  -0.1500 
 14 C        3.4430     1.8770     0.1230 C.3   1 <1>  -0.0190 
 15 C       -3.1850    -1.6620    -0.9680 C.ar  1 <1>   0.0830 
 16 C       -4.9650    -0.1080    -0.0610 C.3   1 <1>  -0.0970 
 17 C        4.6260     2.0410    -0.8300 C.2   1 <1>   0.5690 
 18 O       -4.1200    -2.0810    -1.8590 O.3   1 <1>  -0.3630 
 19 O        4.8380     1.1960    -1.6660 O.2   1 <1>  -0.5700 
 20 N        5.4130     3.1440    -0.7070 N.am  1 <1>  -0.7300 
 21 C       -3.8440    -3.0880    -2.8080 C.3   1 <1>   0.0400 
 22 C        6.5950     3.4450    -1.5560 C.3   1 <1>   0.0600 
 23 H        2.5850    -0.4220     2.5590 H     1 <1>   0.0800 
 24 H        2.3030     1.2990     2.6390 H     1 <1>   0.0800 
 25 H        0.8140     2.3510     0.9540 H     1 <1>   0.0800 
 26 H        0.0510     1.3360    -0.2440 H     1 <1>   0.0800 
 27 H       -2.9180     0.5370     1.5800 H     1 <1>   0.1500 
 28 H        0.0190    -2.0960     0.0140 H     1 <1>   0.1500 
 29 H        3.7960    -0.2180     0.4820 H     1 <1>   0.0800 
 30 H        4.5130     0.8270     1.6700 H     1 <1>   0.0800 
 31 H        1.9250     2.5960    -1.2240 H     1 <1>   0.0800 
 32 H        2.1790     0.8790    -1.3110 H     1 <1>   0.0800 
 33 H       -1.5690    -2.9280    -1.6230 H     1 <1>   0.1500 
 34 H        3.3730     2.7630     0.7280 H     1 <1>   0.0800 
 35 H       -5.0900     0.6370     0.7030 H     1 <1>   0.0800 
 36 H       -5.6770    -0.8960     0.1080 H     1 <1>   0.0800 
 37 H       -5.1700     0.3410    -1.0170 H     1 <1>   0.0800 
 38 H        5.2020     3.8330     0.0160 H     1 <1>   0.3700 
 39 H       -4.7340    -3.2500    -3.3900 H     1 <1>   0.0800 
 40 H       -3.5770    -3.9920    -2.2900 H     1 <1>   0.0800 
 41 H       -3.0450    -2.7570    -3.4460 H     1 <1>   0.0800 
 42 H        6.7420     2.6670    -2.2860 H     1 <1>   0.0800 
 43 H        7.4770     3.5130    -0.9420 H     1 <1>   0.0800 
 44 H        6.4460     4.3780    -2.0700 H     1 <1>   0.0800 
@<TRIPOS>BOND
  1   1   2  2   
  2   1   3  2   
  3   1   4  am  
  4   1   5  1   
  5   4   6  1   
  6   4   7  1   
  7   5   8  ar  
  8   5   9  ar  
  9   6  10  1   
 10   6  23  1   
 11   6  24  1   
 12   7  11  1   
 13   7  25  1   
 14   7  26  1   
 15   8  12  ar  
 16   8  27  1   
 17   9  13  ar  
 18   9  28  1   
 19  10  14  1   
 20  10  29  1   
 21  10  30  1   
 22  11  14  1   
 23  11  31  1   
 24  11  32  1   
 25  12  15  ar  
 26  12  16  1   
 27  13  15  ar  
 28  13  33  1   
 29  14  17  1   
 30  14  34  1   
 31  15  18  1   
 32  16  35  1   
 33  16  36  1   
 34  16  37  1   
 35  17  19  2   
 36  17  20  am  
 37  18  21  1   
 38  20  22  1   
 39  20  38  1   
 40  21  39  1   
 41  21  40  1   
 42  21  41  1   
 43  22  42  1   
 44  22  43  1   
 45  22  44  1   
@<TRIPOS>SUBSTRUCTURE
  1 ****   4 GROUP 4 **** **** 0

# MOE 2024.06 (io_trps.svl 2023.06)
