@<TRIPOS>MOLECULE
2-(4-Cyclopentylsulfamoyl-phenoxy)-N-furan-2-ylmethyl-acetamide
48 50 1 0 0 
SMALL
USER_CHARGES


@<TRIPOS>ATOM
  1 S       -0.3560     1.7690     1.5320 S.o2  1 <1>   1.4470 
  2 O       -0.7860     2.8860     0.7210 O.2   1 <1>  -0.6500 
  3 O       -0.9290     1.5590     2.8400 O.2   1 <1>  -0.6500 
  4 N       -0.7230     0.3540     0.7160 N.am  1 <1>  -0.9140 
  5 C        1.4530     1.7370     1.6280 C.ar  1 <1>  -0.0090 
  6 C       -1.9910     0.4050     0.0180 C.3   1 <1>   0.2760 
  7 C        2.1140     1.9660     2.8300 C.ar  1 <1>  -0.1500 
  8 C        2.2230     1.4960     0.4970 C.ar  1 <1>  -0.1500 
  9 C       -2.5470    -1.0120    -0.0800 C.3   1 <1>  -0.1600 
 10 C       -1.7580     0.7770    -1.4440 C.3   1 <1>  -0.1600 
 11 C        3.4960     1.9530     2.9070 C.ar  1 <1>  -0.1500 
 12 C        3.6050     1.4810     0.5620 C.ar  1 <1>  -0.1500 
 13 C       -1.8220    -1.6680    -1.2600 C.3   1 <1>  -0.1600 
 14 C       -1.3330    -0.5170    -2.1480 C.3   1 <1>  -0.1600 
 15 C        4.2510     1.7090     1.7650 C.ar  1 <1>   0.0820 
 16 O        5.6030     1.6810     1.7440 O.3   1 <1>  -0.3620 
 17 C        6.3680     1.9460     2.9130 C.3   1 <1>   0.1810 
 18 C        7.8620     1.8930     2.6210 C.2   1 <1>   0.5690 
 19 O        8.6380     2.0750     3.5280 O.2   1 <1>  -0.5700 
 20 N        8.2920     1.6450     1.3600 N.am  1 <1>  -0.7300 
 21 C        9.6960     1.6240     0.9200 C.3   1 <1>   0.3200 
 22 C        9.7800     2.2020    -0.4810 C.2   1 <1>  -0.0400 
 23 O        9.1420     1.5940    -1.4650 O.3   1 <1>  -0.2800 
 24 C       10.4260     3.2950    -0.9430 C.2   1 <1>  -0.1500 
 25 C        9.3650     2.2800    -2.5680 C.2   1 <1>  -0.0100 
 26 C       10.1530     3.3460    -2.3150 C.2   1 <1>  -0.1500 
 27 H       -0.8480    -0.3120     1.4730 H     1 <1>   0.4200 
 28 H       -2.6870     1.0670     0.5110 H     1 <1>   0.0800 
 29 H        1.5370     2.1570     3.7200 H     1 <1>   0.1500 
 30 H        1.7320     1.3190    -0.4460 H     1 <1>   0.1500 
 31 H       -3.5950    -0.9460    -0.3160 H     1 <1>   0.0800 
 32 H       -2.4390    -1.5680     0.8340 H     1 <1>   0.0800 
 33 H       -1.0340     1.5640    -1.5610 H     1 <1>   0.0800 
 34 H       -2.6910     1.1100    -1.8610 H     1 <1>   0.0800 
 35 H        3.9590     2.1340     3.8590 H     1 <1>   0.1500 
 36 H        4.1880     1.2930    -0.3220 H     1 <1>   0.1500 
 37 H       -2.4750    -2.3340    -1.7960 H     1 <1>   0.0800 
 38 H       -0.9730    -2.2240    -0.9000 H     1 <1>   0.0800 
 39 H       -0.2600    -0.5530    -2.2220 H     1 <1>   0.0800 
 40 H       -1.7540    -0.5730    -3.1370 H     1 <1>   0.0800 
 41 H        6.1260     1.2070     3.6540 H     1 <1>   0.0800 
 42 H        6.1150     2.9270     3.2710 H     1 <1>   0.0800 
 43 H        7.6050     1.5220     0.6100 H     1 <1>   0.3700 
 44 H       10.0530     0.6100     0.9140 H     1 <1>   0.0800 
 45 H       10.3030     2.2020     1.5960 H     1 <1>   0.0800 
 46 H       11.0290     4.0020    -0.4000 H     1 <1>   0.1500 
 47 H        8.9250     1.9400    -3.4890 H     1 <1>   0.1500 
 48 H       10.5140     4.0950    -2.9980 H     1 <1>   0.1500 
@<TRIPOS>BOND
  1   1   2  2   
  2   1   3  2   
  3   1   4  am  
  4   1   5  1   
  5   4   6  1   
  6   4  27  1   
  7   5   7  ar  
  8   5   8  ar  
  9   6   9  1   
 10   6  10  1   
 11   6  28  1   
 12   7  11  ar  
 13   7  29  1   
 14   8  12  ar  
 15   8  30  1   
 16   9  13  1   
 17   9  31  1   
 18   9  32  1   
 19  10  14  1   
 20  10  33  1   
 21  10  34  1   
 22  11  15  ar  
 23  11  35  1   
 24  12  15  ar  
 25  12  36  1   
 26  13  14  1   
 27  13  37  1   
 28  13  38  1   
 29  14  39  1   
 30  14  40  1   
 31  15  16  1   
 32  16  17  1   
 33  17  18  1   
 34  17  41  1   
 35  17  42  1   
 36  18  19  2   
 37  18  20  am  
 38  20  21  1   
 39  20  43  1   
 40  21  22  1   
 41  21  44  1   
 42  21  45  1   
 43  22  23  1   
 44  22  24  2   
 45  23  25  1   
 46  24  26  1   
 47  24  46  1   
 48  25  26  2   
 49  25  47  1   
 50  26  48  1   
@<TRIPOS>SUBSTRUCTURE
  1 ****  12 GROUP 4 **** **** 0

# MOE 2024.06 (io_trps.svl 2023.06)
