@<TRIPOS>MOLECULE
3-Chloro-4-(2-morpholin-4-yl-2-oxo-ethoxy)-N-propyl-benzenesulfonamide
45 46 1 0 0 
SMALL
USER_CHARGES


@<TRIPOS>ATOM
  1 CL       1.3350    -1.0090    -1.6540 Cl    1 <1>  -0.1770 
  2 C        0.7070    -2.0080    -0.3610 C.ar  1 <1>   0.1770 
  3 C        1.5320    -2.3940     0.6880 C.ar  1 <1>   0.0830 
  4 C       -0.6120    -2.4110    -0.4220 C.ar  1 <1>  -0.1500 
  5 O        2.8200    -1.9740     0.6950 O.3   1 <1>  -0.3620 
  6 C        1.0020    -3.1970     1.6900 C.ar  1 <1>  -0.1500 
  7 C       -1.1510    -3.2200     0.5720 C.ar  1 <1>  -0.0090 
  8 C        3.8360    -2.8010     1.2440 C.3   1 <1>   0.1810 
  9 C       -0.3220    -3.6020     1.6240 C.ar  1 <1>  -0.1500 
 10 S       -2.8780    -3.7610     0.4810 S.o2  1 <1>   1.4470 
 11 C        5.2320    -2.2920     0.8890 C.2   1 <1>   0.5690 
 12 O       -3.7240    -2.6230     0.2070 O.2   1 <1>  -0.6500 
 13 O       -3.1740    -4.6630     1.5690 O.2   1 <1>  -0.6500 
 14 N       -2.8800    -4.7500    -0.8760 N.am  1 <1>  -0.9140 
 15 O        6.0030    -2.1450     1.8090 O.2   1 <1>  -0.5700 
 16 N        5.6120    -2.0420    -0.4090 N.am  1 <1>  -0.6600 
 17 C       -4.1070    -4.7430    -1.6590 C.3   1 <1>   0.1960 
 18 C        6.9510    -1.4590    -0.7270 C.3   1 <1>   0.1400 
 19 C        4.7440    -2.1990    -1.6170 C.3   1 <1>   0.1400 
 20 C       -5.2290    -5.4820    -0.9210 C.3   1 <1>  -0.1600 
 21 C        7.5930    -2.1800    -1.9220 C.3   1 <1>   0.1200 
 22 C        5.5160    -2.8600    -2.7730 C.3   1 <1>   0.1200 
 23 C       -6.4870    -5.5870    -1.7910 C.3   1 <1>  -0.2400 
 24 O        6.7220    -2.1940    -3.0170 O.3   1 <1>  -0.5600 
 25 H       -1.2240    -2.0950    -1.2490 H     1 <1>   0.1500 
 26 H        1.6000    -3.5060     2.5290 H     1 <1>   0.1500 
 27 H        3.7130    -3.7970     0.8630 H     1 <1>   0.0800 
 28 H        3.7270    -2.8020     2.3120 H     1 <1>   0.0800 
 29 H       -0.7210    -4.2240     2.4080 H     1 <1>   0.1500 
 30 H       -2.7790    -5.6860    -0.4870 H     1 <1>   0.4200 
 31 H       -3.9160    -5.2440    -2.5930 H     1 <1>   0.0800 
 32 H       -4.4040    -3.7310    -1.8870 H     1 <1>   0.0800 
 33 H        7.6080    -1.5320     0.1230 H     1 <1>   0.0800 
 34 H        6.8340    -0.4170    -0.9640 H     1 <1>   0.0800 
 35 H        4.3990    -1.2290    -1.9320 H     1 <1>   0.0800 
 36 H        3.8820    -2.8010    -1.3970 H     1 <1>   0.0800 
 37 H       -5.4840    -4.9560    -0.0180 H     1 <1>   0.0800 
 38 H       -4.9020    -6.4740    -0.6610 H     1 <1>   0.0800 
 39 H        7.8410    -3.1950    -1.6620 H     1 <1>   0.0800 
 40 H        8.4910    -1.6710    -2.2230 H     1 <1>   0.0800 
 41 H        4.9330    -2.8230    -3.6760 H     1 <1>   0.0800 
 42 H        5.7330    -3.8890    -2.5430 H     1 <1>   0.0800 
 43 H       -6.8490    -4.6070    -2.0490 H     1 <1>   0.0800 
 44 H       -7.2620    -6.1050    -1.2530 H     1 <1>   0.0800 
 45 H       -6.2790    -6.1310    -2.6960 H     1 <1>   0.0800 
@<TRIPOS>BOND
  1   1   2  1   
  2   2   3  ar  
  3   2   4  ar  
  4   3   5  1   
  5   3   6  ar  
  6   4   7  ar  
  7   4  25  1   
  8   5   8  1   
  9   6   9  ar  
 10   6  26  1   
 11   7   9  ar  
 12   7  10  1   
 13   8  11  1   
 14   8  27  1   
 15   8  28  1   
 16   9  29  1   
 17  10  12  2   
 18  10  13  2   
 19  10  14  am  
 20  11  15  2   
 21  11  16  am  
 22  14  17  1   
 23  14  30  1   
 24  16  18  1   
 25  16  19  1   
 26  17  20  1   
 27  17  31  1   
 28  17  32  1   
 29  18  21  1   
 30  18  33  1   
 31  18  34  1   
 32  19  22  1   
 33  19  35  1   
 34  19  36  1   
 35  20  23  1   
 36  20  37  1   
 37  20  38  1   
 38  21  24  1   
 39  21  39  1   
 40  21  40  1   
 41  22  24  1   
 42  22  41  1   
 43  22  42  1   
 44  23  43  1   
 45  23  44  1   
 46  23  45  1   
@<TRIPOS>SUBSTRUCTURE
  1 ****   2 GROUP 4 **** **** 0

# MOE 2024.06 (io_trps.svl 2023.06)
