@<TRIPOS>MOLECULE
8-(2-Methoxy-ethyl)-1,7-dimethyl-3-(2-oxo-2-phenyl-ethyl)-1H,8H-imidazo[2,1-f]pu
51 54 1 0 0 
SMALL
USER_CHARGES


@<TRIPOS>ATOM
  1 O        0.8550    -0.4740    -0.0120 O.2   1 <1>  -0.5740 
  2 C        1.7120     0.3380    -0.2970 C.2   1 <1>   0.6860 
  3 N        1.3880     1.4310    -1.0890 N.am  1 <1>  -0.4260 
  4 N        3.0090     0.1770     0.1730 N.am  1 <1>  -0.4410 
  5 C        2.3520     2.3410    -1.4900 C.2   1 <1>   0.6990 
  6 C       -0.0290     1.9130    -1.0540 C.3   1 <1>   0.1940 
  7 C        3.9330     1.1570    -0.1290 C.2   1 <1>   0.4210 
  8 C        3.3580    -0.9580     1.0760 C.3   1 <1>   0.0520 
  9 O        2.0800     3.2200    -2.2920 O.2   1 <1>  -0.5740 
 10 C        3.6590     2.2080    -0.9400 C.2   1 <1>   0.2710 
 11 C       -0.2860     2.7840     0.1810 C.2   1 <1>   0.4170 
 12 N        5.2280     1.2430     0.2860 N.pl3 1 <1>  -0.7040 
 13 N        4.8460     2.9520    -1.0370 N.pl3 1 <1>  -0.6330 
 14 O        0.6730     3.1360     0.8300 O.2   1 <1>  -0.5740 
 15 C       -1.6480     3.1490     0.5220 C.ar  1 <1>   0.0790 
 16 C        5.7430     2.3320    -0.2830 C.cat 1 <1>   1.0690 
 17 C        5.4710     4.0580    -1.5740 C.2   1 <1>   0.2220 
 18 C       -2.7460     2.8690    -0.3010 C.ar  1 <1>  -0.1570 
 19 C       -1.9150     3.8140     1.7210 C.ar  1 <1>  -0.1570 
 20 N        6.9260     2.9620    -0.2940 N.pl3 1 <1>  -0.5720 
 21 C        6.7450     4.0650    -1.1190 C.2   1 <1>   0.1580 
 22 C       -4.0320     3.2290     0.0590 C.ar  1 <1>  -0.1570 
 23 C       -3.1980     4.1770     2.0860 C.ar  1 <1>  -0.1570 
 24 C        8.1350     2.6100     0.5120 C.3   1 <1>   0.1600 
 25 C        7.8480     5.0670    -1.4060 C.3   1 <1>  -0.1090 
 26 C       -4.2620     3.8840     1.2540 C.ar  1 <1>  -0.1570 
 27 C        8.6620     1.1910     0.2400 C.3   1 <1>   0.1130 
 28 O        7.7010     0.2370     0.5910 O.3   1 <1>  -0.5650 
 29 C        8.1580    -1.0750     0.4650 C.3   1 <1>   0.0320 
 30 H       -0.6970     1.0690    -1.0420 H     1 <1>   0.0720 
 31 H       -0.2400     2.4850    -1.9390 H     1 <1>   0.0720 
 32 H        2.7240    -1.8050     0.8750 H     1 <1>   0.0720 
 33 H        3.2170    -0.6590     2.1010 H     1 <1>   0.0720 
 34 H        4.3790    -1.2590     0.9280 H     1 <1>   0.0720 
 35 H        5.8550     0.5660     0.7400 H     1 <1>   0.4450 
 36 H        4.9620     4.7480    -2.2310 H     1 <1>   0.1430 
 37 H       -2.6180     2.3660    -1.2410 H     1 <1>   0.1430 
 38 H       -1.0990     4.0520     2.3830 H     1 <1>   0.1430 
 39 H       -4.8600     3.0010    -0.5910 H     1 <1>   0.1430 
 40 H       -3.3700     4.6880     3.0180 H     1 <1>   0.1430 
 41 H        7.9050     2.7030     1.5600 H     1 <1>   0.0720 
 42 H        8.9250     3.3070     0.2950 H     1 <1>   0.0720 
 43 H        8.6870     4.5750    -1.8650 H     1 <1>   0.0720 
 44 H        8.1720     5.5350    -0.4930 H     1 <1>   0.0720 
 45 H        7.4950     5.8330    -2.0740 H     1 <1>   0.0720 
 46 H       -5.2620     4.1650     1.5350 H     1 <1>   0.1430 
 47 H        9.5450     1.0170     0.8340 H     1 <1>   0.0720 
 48 H        8.9100     1.0730    -0.8010 H     1 <1>   0.0720 
 49 H        7.3630    -1.7430     0.7460 H     1 <1>   0.0720 
 50 H        9.0010    -1.2250     1.1190 H     1 <1>   0.0720 
 51 H        8.4410    -1.2600    -0.5580 H     1 <1>   0.0720 
@<TRIPOS>BOND
  1   1   2  2   
  2   2   3  am  
  3   2   4  am  
  4   3   5  am  
  5   3   6  1   
  6   4   7  1   
  7   4   8  1   
  8   5   9  2   
  9   5  10  1   
 10   6  11  1   
 11   6  30  1   
 12   6  31  1   
 13   7  10  2   
 14   7  12  1   
 15   8  32  1   
 16   8  33  1   
 17   8  34  1   
 18  10  13  1   
 19  11  14  2   
 20  11  15  1   
 21  12  16  ar  
 22  12  35  1   
 23  13  16  ar  
 24  13  17  1   
 25  15  18  ar  
 26  15  19  ar  
 27  16  20  ar  
 28  17  21  2   
 29  17  36  1   
 30  18  22  ar  
 31  18  37  1   
 32  19  23  ar  
 33  19  38  1   
 34  20  21  1   
 35  20  24  1   
 36  21  25  1   
 37  22  26  ar  
 38  22  39  1   
 39  23  26  ar  
 40  23  40  1   
 41  24  27  1   
 42  24  41  1   
 43  24  42  1   
 44  25  43  1   
 45  25  44  1   
 46  25  45  1   
 47  26  46  1   
 48  27  28  1   
 49  27  47  1   
 50  27  48  1   
 51  28  29  1   
 52  29  49  1   
 53  29  50  1   
 54  29  51  1   
@<TRIPOS>SUBSTRUCTURE
  1 ****  10 GROUP 4 **** **** 0

# MOE 2024.06 (io_trps.svl 2023.06)
