@<TRIPOS>MOLECULE
7-[3-(4,6-Dimethyl-pyrimidin-2-ylsulfanyl)-2-methyl-propyl]-3-methyl-8-pyrrolidi
58 61 1 0 0 
SMALL
USER_CHARGES


@<TRIPOS>ATOM
  1 S       -0.4820    -0.2050    -0.1780 S.3   1 <1>  -0.3370 
  2 C        0.4670     1.3040    -0.0660 C.ar  1 <1>   0.7180 
  3 C       -2.1860     0.3420    -0.6580 C.3   1 <1>   0.0630 
  4 N       -0.1950     2.4200    -0.3250 N.ar  1 <1>  -0.6240 
  5 N        1.7320     1.1300     0.2700 N.ar  1 <1>  -0.6240 
  6 C       -3.1140    -0.8800    -0.7870 C.3   1 <1>  -0.0870 
  7 C        0.5290     3.5120    -0.2360 C.ar  1 <1>   0.1600 
  8 C        2.4290     2.2390     0.3500 C.ar  1 <1>   0.1600 
  9 C       -3.2250    -1.6100     0.5710 C.3   1 <1>   0.3490 
 10 C       -2.6790    -1.7720    -1.9700 C.3   1 <1>  -0.2460 
 11 C        1.8630     3.4700     0.1030 C.ar  1 <1>  -0.1560 
 12 C       -0.1680     4.8250    -0.5230 C.3   1 <1>  -0.1030 
 13 C        3.8890     2.1060     0.7290 C.3   1 <1>  -0.1030 
 14 N       -3.9440    -2.9110     0.4470 N.pl3 1 <1>  -0.7670 
 15 C       -3.4880    -4.1700     0.3060 C.cat 1 <1>   1.0690 
 16 C       -5.3460    -2.9580     0.3290 C.2   1 <1>   0.2710 
 17 N       -4.5280    -4.9850     0.1020 N.pl3 1 <1>  -0.7030 
 18 N       -2.2200    -4.6400     0.3450 N.pl3 1 <1>  -0.5960 
 19 C       -6.4090    -1.9950     0.3820 C.2   1 <1>   0.7000 
 20 C       -5.6710    -4.2520     0.1150 C.2   1 <1>   0.4210 
 21 C       -0.9980    -3.8970     0.7590 C.3   1 <1>   0.1610 
 22 C       -1.8480    -6.0350    -0.0150 C.3   1 <1>   0.1610 
 23 O       -6.2390    -0.8070     0.5740 O.2   1 <1>  -0.5740 
 24 N       -7.6810    -2.4560     0.2040 N.am  1 <1>  -0.4940 
 25 N       -6.9710    -4.7060    -0.0600 N.am  1 <1>  -0.4410 
 26 C        0.1130    -4.9360     0.8320 C.3   1 <1>  -0.1660 
 27 C       -0.3300    -6.0360    -0.1210 C.3   1 <1>  -0.1660 
 28 C       -7.9910    -3.7670    -0.0130 C.2   1 <1>   0.6870 
 29 C       -7.2620    -6.1510    -0.2930 C.3   1 <1>   0.0530 
 30 O       -9.1520    -4.0660    -0.1600 O.2   1 <1>  -0.5740 
 31 H       -2.0960     0.8710    -1.5910 H     1 <1>   0.0730 
 32 H       -2.5260     1.0210     0.1050 H     1 <1>   0.0730 
 33 H       -4.0880    -0.4900    -1.0250 H     1 <1>   0.0730 
 34 H       -3.7550    -0.9760     1.2630 H     1 <1>   0.0730 
 35 H       -2.2560    -1.7640     0.9970 H     1 <1>   0.0730 
 36 H       -1.7300    -2.2410    -1.7840 H     1 <1>   0.0730 
 37 H       -2.5810    -1.1740    -2.8600 H     1 <1>   0.0730 
 38 H       -3.4100    -2.5330    -2.1720 H     1 <1>   0.0730 
 39 H        2.4450     4.3690     0.1720 H     1 <1>   0.1440 
 40 H       -0.5740     4.8060    -1.5180 H     1 <1>   0.0730 
 41 H        0.5150     5.6510    -0.4410 H     1 <1>   0.0730 
 42 H       -0.9710     4.9660     0.1760 H     1 <1>   0.0730 
 43 H        4.3950     1.4990     0.0020 H     1 <1>   0.0730 
 44 H        3.9690     1.6320     1.6910 H     1 <1>   0.0730 
 45 H        4.3670     3.0670     0.7740 H     1 <1>   0.0730 
 46 H       -4.4540    -5.9890    -0.0220 H     1 <1>   0.4450 
 47 H       -1.1300    -3.4240     1.7170 H     1 <1>   0.0730 
 48 H       -0.7490    -3.1610     0.0140 H     1 <1>   0.0730 
 49 H       -2.2940    -6.3360    -0.9480 H     1 <1>   0.0730 
 50 H       -2.1550    -6.7030     0.7730 H     1 <1>   0.0730 
 51 H       -8.4520    -1.7920     0.2360 H     1 <1>   0.3650 
 52 H        0.1770    -5.3200     1.8360 H     1 <1>   0.0730 
 53 H        1.0670    -4.5180     0.5600 H     1 <1>   0.0730 
 54 H       -0.0410    -5.7860    -1.1280 H     1 <1>   0.0730 
 55 H        0.0930    -6.9930     0.1340 H     1 <1>   0.0730 
 56 H       -6.7830    -6.4790    -1.1990 H     1 <1>   0.0730 
 57 H       -8.3220    -6.3190    -0.3920 H     1 <1>   0.0730 
 58 H       -6.9050    -6.7360     0.5360 H     1 <1>   0.0730 
@<TRIPOS>BOND
  1   1   2  1   
  2   1   3  1   
  3   2   4  ar  
  4   2   5  ar  
  5   3   6  1   
  6   3  31  1   
  7   3  32  1   
  8   4   7  ar  
  9   5   8  ar  
 10   6   9  1   
 11   6  10  1   
 12   6  33  1   
 13   7  11  ar  
 14   7  12  1   
 15   8  11  ar  
 16   8  13  1   
 17   9  14  1   
 18   9  34  1   
 19   9  35  1   
 20  10  36  1   
 21  10  37  1   
 22  10  38  1   
 23  11  39  1   
 24  12  40  1   
 25  12  41  1   
 26  12  42  1   
 27  13  43  1   
 28  13  44  1   
 29  13  45  1   
 30  14  15  ar  
 31  14  16  1   
 32  15  17  ar  
 33  15  18  ar  
 34  16  19  1   
 35  16  20  2   
 36  17  20  1   
 37  17  46  1   
 38  18  21  1   
 39  18  22  1   
 40  19  23  2   
 41  19  24  am  
 42  20  25  1   
 43  21  26  1   
 44  21  47  1   
 45  21  48  1   
 46  22  27  1   
 47  22  49  1   
 48  22  50  1   
 49  24  28  am  
 50  24  51  1   
 51  25  28  am  
 52  25  29  1   
 53  26  27  1   
 54  26  52  1   
 55  26  53  1   
 56  27  54  1   
 57  27  55  1   
 58  28  30  2   
 59  29  56  1   
 60  29  57  1   
 61  29  58  1   
@<TRIPOS>SUBSTRUCTURE
  1 ****   9 GROUP 4 **** **** 0

# MOE 2024.06 (io_trps.svl 2023.06)
