@<TRIPOS>MOLECULE
2-(2-Chloro-4-cyclohexylsulfamoyl-phenoxy)-N-pyridin-2-ylmethyl-acetamide
53 55 1 0 0 
SMALL
USER_CHARGES


@<TRIPOS>ATOM
  1 CL       1.7700    -1.5520    -1.3760 Cl    1 <1>  -0.1770 
  2 C        1.1020    -2.1980     0.1070 C.ar  1 <1>   0.1770 
  3 C        1.9270    -2.4320     1.2000 C.ar  1 <1>   0.0820 
  4 C       -0.2520    -2.4610     0.1570 C.ar  1 <1>  -0.1500 
  5 O        3.2470    -2.1470     1.0770 O.3   1 <1>  -0.3630 
  6 C        1.3580    -2.9440     2.3620 C.ar  1 <1>  -0.1500 
  7 C       -0.8290    -2.9740     1.3120 C.ar  1 <1>  -0.0090 
  8 C        4.1580    -2.3030     2.1560 C.3   1 <1>   0.1810 
  9 C       -0.0010    -3.2070     2.4070 C.ar  1 <1>  -0.1500 
 10 S       -2.6070    -3.3120     1.3840 S.o2  1 <1>   1.4470 
 11 C        5.5620    -1.8700     1.7530 C.2   1 <1>   0.5690 
 12 O       -3.3400    -2.0790     1.2210 O.2   1 <1>  -0.6500 
 13 O       -2.8990    -4.1990     2.4850 O.2   1 <1>  -0.6500 
 14 N       -2.8590    -4.2720     0.0340 N.am  1 <1>  -0.9140 
 15 O        6.4590    -2.0000     2.5510 O.2   1 <1>  -0.5700 
 16 N        5.7780    -1.3600     0.5150 N.am  1 <1>  -0.7300 
 17 C       -4.1880    -4.1640    -0.5260 C.3   1 <1>   0.2760 
 18 C        7.1000    -0.9850    -0.0360 C.3   1 <1>   0.2840 
 19 C       -4.5950    -5.5480    -1.0440 C.3   1 <1>  -0.1600 
 20 C       -4.1750    -3.1430    -1.6720 C.3   1 <1>  -0.1600 
 21 C        7.5840    -2.0430    -1.0190 C.ar  1 <1>   0.1670 
 22 C       -5.9580    -5.5020    -1.7510 C.3   1 <1>  -0.1600 
 23 C       -5.5340    -3.0860    -2.3860 C.3   1 <1>  -0.1600 
 24 N        7.3950    -1.8020    -2.3100 N.ar  1 <1>  -0.6200 
 25 C        8.1860    -3.1910    -0.5240 C.ar  1 <1>  -0.1500 
 26 C       -5.9550    -4.4730    -2.8890 C.3   1 <1>  -0.1600 
 27 C        7.8240    -2.7430    -3.1360 C.ar  1 <1>   0.1600 
 28 C        8.6300    -4.1610    -1.3970 C.ar  1 <1>  -0.1500 
 29 C        8.4380    -3.9190    -2.7400 C.ar  1 <1>  -0.1500 
 30 H       -0.8610    -2.2660    -0.7080 H     1 <1>   0.1500 
 31 H        1.9500    -3.1450     3.2360 H     1 <1>   0.1500 
 32 H        4.1750    -3.3380     2.4420 H     1 <1>   0.0800 
 33 H        3.8230    -1.6960     2.9770 H     1 <1>   0.0800 
 34 H       -0.4310    -3.6030     3.3140 H     1 <1>   0.1500 
 35 H       -2.8020    -5.2100     0.4260 H     1 <1>   0.4200 
 36 H        5.0090    -1.3740    -0.1630 H     1 <1>   0.3700 
 37 H       -4.8970    -3.8590     0.2290 H     1 <1>   0.0800 
 38 H        7.8150    -0.8830     0.7620 H     1 <1>   0.0800 
 39 H        7.0220    -0.0360    -0.5370 H     1 <1>   0.0800 
 40 H       -4.6530    -6.2390    -0.2220 H     1 <1>   0.0800 
 41 H       -3.8540    -5.9010    -1.7400 H     1 <1>   0.0800 
 42 H       -3.4160    -3.4160    -2.3830 H     1 <1>   0.0800 
 43 H       -3.9440    -2.1650    -1.2900 H     1 <1>   0.0800 
 44 H       -6.7230    -5.2430    -1.0390 H     1 <1>   0.0800 
 45 H       -6.1930    -6.4750    -2.1470 H     1 <1>   0.0800 
 46 H       -5.4760    -2.4030    -3.2160 H     1 <1>   0.0800 
 47 H       -6.2780    -2.7120    -1.7030 H     1 <1>   0.0800 
 48 H        8.2990    -3.3220     0.5390 H     1 <1>   0.1500 
 49 H       -6.9380    -4.4150    -3.3260 H     1 <1>   0.0800 
 50 H       -5.2730    -4.7940    -3.6580 H     1 <1>   0.0800 
 51 H        7.6780    -2.5670    -4.1880 H     1 <1>   0.1500 
 52 H        9.1010    -5.0620    -1.0450 H     1 <1>   0.1500 
 53 H        8.7590    -4.6340    -3.4750 H     1 <1>   0.1500 
@<TRIPOS>BOND
  1   1   2  1   
  2   2   3  ar  
  3   2   4  ar  
  4   3   5  1   
  5   3   6  ar  
  6   4   7  ar  
  7   4  30  1   
  8   5   8  1   
  9   6   9  ar  
 10   6  31  1   
 11   7   9  ar  
 12   7  10  1   
 13   8  11  1   
 14   8  32  1   
 15   8  33  1   
 16   9  34  1   
 17  10  12  2   
 18  10  13  2   
 19  10  14  am  
 20  11  15  2   
 21  11  16  am  
 22  14  17  1   
 23  14  35  1   
 24  16  18  1   
 25  16  36  1   
 26  17  19  1   
 27  17  20  1   
 28  17  37  1   
 29  18  21  1   
 30  18  38  1   
 31  18  39  1   
 32  19  22  1   
 33  19  40  1   
 34  19  41  1   
 35  20  23  1   
 36  20  42  1   
 37  20  43  1   
 38  21  24  ar  
 39  21  25  ar  
 40  22  26  1   
 41  22  44  1   
 42  22  45  1   
 43  23  26  1   
 44  23  46  1   
 45  23  47  1   
 46  24  27  ar  
 47  25  28  ar  
 48  25  48  1   
 49  26  49  1   
 50  26  50  1   
 51  27  29  ar  
 52  27  51  1   
 53  28  29  ar  
 54  28  52  1   
 55  29  53  1   
@<TRIPOS>SUBSTRUCTURE
  1 ****   2 GROUP 4 **** **** 0

# MOE 2024.06 (io_trps.svl 2023.06)
