@<TRIPOS>MOLECULE
(3-Methoxy-propyl)-(4-morpholin-4-yl-2,3-dihydro-1H-6-thia-5,8,10-triaza-cyclope
54 58 1 0 0 
SMALL
USER_CHARGES


@<TRIPOS>ATOM
  1 S       -0.6320    -0.3750    -0.1410 S.3   1 <1>  -0.0800 
  2 C       -2.0990     0.6060    -0.2380 C.ar  1 <1>   0.2970 
  3 C        0.4070     1.0600     0.0050 C.ar  1 <1>   0.0400 
  4 N       -3.2800     0.0400    -0.3630 N.ar  1 <1>  -0.5670 
  5 C       -1.7810     1.9610    -0.1620 C.ar  1 <1>   0.0000 
  6 C        1.7990     1.1410     0.1360 C.ar  1 <1>   0.4100 
  7 C       -0.3730     2.1850    -0.0240 C.ar  1 <1>   0.3070 
  8 C       -4.2930     0.9000    -0.4210 C.ar  1 <1>   0.4100 
  9 C       -2.8580     2.8410    -0.2330 C.ar  1 <1>  -0.1430 
 10 N        2.3760     2.3470     0.2350 N.ar  1 <1>  -0.6200 
 11 N        2.6690     0.1250     0.1780 N.pl3 1 <1>  -0.8690 
 12 N        0.2690     3.3740     0.0820 N.ar  1 <1>  -0.1250 
 13 N       -5.5570     0.3770    -0.5410 N.pl3 1 <1>  -0.8380 
 14 C       -4.1000     2.2890    -0.3590 C.ar  1 <1>  -0.1430 
 15 C       -2.9280     4.3520    -0.2020 C.3   1 <1>  -0.0170 
 16 C        1.6170     3.4050     0.2060 C.ar  1 <1>   0.5210 
 17 C        2.4360    -1.3320     0.1000 C.3   1 <1>   0.2090 
 18 C       -6.4270     0.3300     0.6700 C.3   1 <1>   0.2090 
 19 C       -5.7960    -0.7760    -1.4630 C.3   1 <1>   0.2090 
 20 C       -5.1730     3.3510    -0.4330 C.3   1 <1>  -0.0170 
 21 C       -4.3790     4.6540    -0.6130 C.3   1 <1>  -0.1600 
 22 C        3.7780    -2.0490     0.1930 C.3   1 <1>  -0.1600 
 23 C       -6.4140    -1.0710     1.3110 C.3   1 <1>   0.1200 
 24 C       -5.8300    -2.1120    -0.6980 C.3   1 <1>   0.1200 
 25 C        3.5940    -3.5620     0.1170 C.3   1 <1>   0.1200 
 26 O       -6.7350    -2.0570     0.3710 O.3   1 <1>  -0.5600 
 27 O        4.8510    -4.1390     0.2070 O.3   1 <1>  -0.5600 
 28 C        4.8430    -5.5280     0.1520 C.3   1 <1>   0.0400 
 29 H        3.6590     0.3740     0.2790 H     1 <1>   0.4000 
 30 H       -0.2720     4.2390     0.0680 H     1 <1>   0.4570 
 31 H       -2.2460     4.8080    -0.8970 H     1 <1>   0.0800 
 32 H       -2.7490     4.7100     0.7980 H     1 <1>   0.0800 
 33 H        2.0930     4.3710     0.2870 H     1 <1>   0.1500 
 34 H        1.9570    -1.5720    -0.8350 H     1 <1>   0.0800 
 35 H        1.8000    -1.6400     0.9140 H     1 <1>   0.0800 
 36 H       -7.4350     0.5830     0.3930 H     1 <1>   0.0800 
 37 H       -6.0890     1.0510     1.3930 H     1 <1>   0.0800 
 38 H       -5.0240    -0.8120    -2.2120 H     1 <1>   0.0800 
 39 H       -6.7360    -0.6350    -1.9680 H     1 <1>   0.0800 
 40 H       -5.7330     3.3660     0.4850 H     1 <1>   0.0800 
 41 H       -5.8400     3.1740    -1.2600 H     1 <1>   0.0800 
 42 H       -4.4020     4.9270    -1.6540 H     1 <1>   0.0800 
 43 H       -4.8040     5.4580    -0.0360 H     1 <1>   0.0800 
 44 H        4.2510    -1.8050     1.1280 H     1 <1>   0.0800 
 45 H        4.4080    -1.7360    -0.6210 H     1 <1>   0.0800 
 46 H       -7.1390    -1.1240     2.1030 H     1 <1>   0.0800 
 47 H       -5.4400    -1.2860     1.7160 H     1 <1>   0.0800 
 48 H       -4.8530    -2.3440    -0.3120 H     1 <1>   0.0800 
 49 H       -6.1410    -2.9060    -1.3530 H     1 <1>   0.0800 
 50 H        3.1500    -3.8490    -0.8220 H     1 <1>   0.0800 
 51 H        2.9920    -3.9170     0.9360 H     1 <1>   0.0800 
 52 H        5.8600    -5.8710     0.2300 H     1 <1>   0.0800 
 53 H        4.4250    -5.8450    -0.7880 H     1 <1>   0.0800 
 54 H        4.2670    -5.9140     0.9750 H     1 <1>   0.0800 
@<TRIPOS>BOND
  1   1   2  1   
  2   1   3  1   
  3   2   4  ar  
  4   2   5  ar  
  5   3   6  ar  
  6   3   7  ar  
  7   4   8  ar  
  8   5   7  1   
  9   5   9  ar  
 10   6  10  ar  
 11   6  11  1   
 12   7  12  ar  
 13   8  13  1   
 14   8  14  ar  
 15   9  14  ar  
 16   9  15  1   
 17  10  16  ar  
 18  11  17  1   
 19  11  29  1   
 20  12  16  ar  
 21  12  30  1   
 22  13  18  1   
 23  13  19  1   
 24  14  20  1   
 25  15  21  1   
 26  15  31  1   
 27  15  32  1   
 28  16  33  1   
 29  17  22  1   
 30  17  34  1   
 31  17  35  1   
 32  18  23  1   
 33  18  36  1   
 34  18  37  1   
 35  19  24  1   
 36  19  38  1   
 37  19  39  1   
 38  20  21  1   
 39  20  40  1   
 40  20  41  1   
 41  21  42  1   
 42  21  43  1   
 43  22  25  1   
 44  22  44  1   
 45  22  45  1   
 46  23  26  1   
 47  23  46  1   
 48  23  47  1   
 49  24  26  1   
 50  24  48  1   
 51  24  49  1   
 52  25  27  1   
 53  25  50  1   
 54  25  51  1   
 55  27  28  1   
 56  28  52  1   
 57  28  53  1   
 58  28  54  1   
@<TRIPOS>SUBSTRUCTURE
  1 ****   2 GROUP 4 **** **** 0

# MOE 2024.06 (io_trps.svl 2023.06)
