@<TRIPOS>MOLECULE
1-(2,5-Dichloro-benzenesulfonyl)-piperidine-3-carboxylic acid (pyridin-4-ylmethy
46 48 1 0 0 
SMALL
USER_CHARGES


@<TRIPOS>ATOM
  1 CL       1.5800    -0.0270    -1.7710 Cl    1 <1>  -0.1770 
  2 C        1.4580     1.6450    -1.2780 C.ar  1 <1>   0.1770 
  3 C        1.6130     2.0180     0.0530 C.ar  1 <1>  -0.0090 
  4 C        1.2020     2.5700    -2.2770 C.ar  1 <1>  -0.1500 
  5 S        1.9590     0.8040     1.3450 S.o2  1 <1>   1.4470 
  6 C        1.4950     3.3710     0.3580 C.ar  1 <1>  -0.1500 
  7 C        1.0910     3.9120    -1.9570 C.ar  1 <1>  -0.1500 
  8 O        0.9340    -0.2150     1.3400 O.2   1 <1>  -0.6500 
  9 O        2.2380     1.4930     2.5870 O.2   1 <1>  -0.6500 
 10 N        3.4190     0.0940     0.8570 N.am  1 <1>  -0.8490 
 11 C        1.2380     4.2960    -0.6380 C.ar  1 <1>   0.1770 
 12 C        4.5740     1.0130     0.9320 C.3   1 <1>   0.1960 
 13 C        3.6750    -1.1950     1.4930 C.3   1 <1>   0.1960 
 14 CL       1.0950     5.9830    -0.2200 Cl    1 <1>  -0.1770 
 15 C        5.9360     0.2920     0.8010 C.3   1 <1>  -0.0190 
 16 C        4.7660    -1.9480     0.7120 C.3   1 <1>  -0.1600 
 17 C        7.0070     1.2040     0.2000 C.2   1 <1>   0.5690 
 18 C        5.7830    -1.0230     0.0150 C.3   1 <1>  -0.1600 
 19 O        6.6900     2.1000    -0.5400 O.2   1 <1>  -0.5700 
 20 N        8.3200     1.0270     0.4720 N.am  1 <1>  -0.7300 
 21 C        9.0060    -0.0690     1.1860 C.3   1 <1>   0.2840 
 22 C       10.0380    -0.6950     0.2650 C.ar  1 <1>  -0.1430 
 23 C       11.3350    -0.9280     0.6790 C.ar  1 <1>  -0.1500 
 24 C        9.7390    -1.0700    -1.0320 C.ar  1 <1>  -0.1500 
 25 C       12.2400    -1.5080    -0.1940 C.ar  1 <1>   0.1600 
 26 C       10.7190    -1.6420    -1.8240 C.ar  1 <1>   0.1600 
 27 N       11.9620    -1.8710    -1.4350 N.ar  1 <1>  -0.6200 
 28 H        1.0920     2.2380    -3.2950 H     1 <1>   0.1500 
 29 H        1.6030     3.7130     1.3740 H     1 <1>   0.1500 
 30 H        0.8930     4.6500    -2.7140 H     1 <1>   0.1500 
 31 H        4.5700     1.5520     1.8650 H     1 <1>   0.0800 
 32 H        4.4570     1.7350     0.1420 H     1 <1>   0.0800 
 33 H        2.7820    -1.7980     1.5030 H     1 <1>   0.0800 
 34 H        3.9800    -1.0330     2.5140 H     1 <1>   0.0800 
 35 H        6.2500     0.0530     1.7990 H     1 <1>   0.0800 
 36 H        4.2950    -2.5670    -0.0310 H     1 <1>   0.0800 
 37 H        5.2750    -2.6040     1.3950 H     1 <1>   0.0800 
 38 H        6.7250    -1.5310    -0.0920 H     1 <1>   0.0800 
 39 H        5.4220    -0.7870    -0.9720 H     1 <1>   0.0800 
 40 H        8.9510     1.6710    -0.0110 H     1 <1>   0.3700 
 41 H        8.3070    -0.8220     1.5010 H     1 <1>   0.0800 
 42 H        9.4870     0.3340     2.0620 H     1 <1>   0.0800 
 43 H       11.6550    -0.6670     1.6710 H     1 <1>   0.1500 
 44 H        8.7550    -0.9190    -1.4370 H     1 <1>   0.1500 
 45 H       13.2470    -1.6830     0.1460 H     1 <1>   0.1500 
 46 H       10.4660    -1.9250    -2.8320 H     1 <1>   0.1500 
@<TRIPOS>BOND
  1   1   2  1   
  2   2   3  ar  
  3   2   4  ar  
  4   3   5  1   
  5   3   6  ar  
  6   4   7  ar  
  7   4  28  1   
  8   5   8  2   
  9   5   9  2   
 10   5  10  am  
 11   6  11  ar  
 12   6  29  1   
 13   7  11  ar  
 14   7  30  1   
 15  10  12  1   
 16  10  13  1   
 17  11  14  1   
 18  12  15  1   
 19  12  31  1   
 20  12  32  1   
 21  13  16  1   
 22  13  33  1   
 23  13  34  1   
 24  15  17  1   
 25  15  18  1   
 26  15  35  1   
 27  16  18  1   
 28  16  36  1   
 29  16  37  1   
 30  17  19  2   
 31  17  20  am  
 32  18  38  1   
 33  18  39  1   
 34  20  21  1   
 35  20  40  1   
 36  21  22  1   
 37  21  41  1   
 38  21  42  1   
 39  22  23  ar  
 40  22  24  ar  
 41  23  25  ar  
 42  23  43  1   
 43  24  26  ar  
 44  24  44  1   
 45  25  27  ar  
 46  25  45  1   
 47  26  27  ar  
 48  26  46  1   
@<TRIPOS>SUBSTRUCTURE
  1 ****  15 GROUP 4 **** **** 0

# MOE 2024.06 (io_trps.svl 2023.06)
