@<TRIPOS>MOLECULE
1-(4-Ethoxy-3-methyl-benzenesulfonyl)-piperidine-4-carboxylic acid (3-hydroxy-pr
54 55 1 0 0 
SMALL
USER_CHARGES


@<TRIPOS>ATOM
  1 S       -0.1270    -0.1330     2.4890 S.o2  1 <1>   1.4470 
  2 O        0.2390    -1.1500     3.4520 O.2   1 <1>  -0.6500 
  3 O       -0.5500     1.1680     2.9630 O.2   1 <1>  -0.6500 
  4 N        1.2300     0.1350     1.5060 N.am  1 <1>  -0.8490 
  5 C       -1.3460    -0.8150     1.3320 C.ar  1 <1>  -0.0090 
  6 C        2.4380     0.3370     2.3080 C.3   1 <1>   0.1960 
  7 C        1.0140     1.2400     0.5660 C.3   1 <1>   0.1960 
  8 C       -2.6220    -0.2740     1.2240 C.ar  1 <1>  -0.1500 
  9 C       -1.0320    -1.8980     0.5210 C.ar  1 <1>  -0.1500 
 10 C        3.6690     0.4260     1.4010 C.3   1 <1>  -0.1600 
 11 C        2.1920     1.3460    -0.4040 C.3   1 <1>  -0.1600 
 12 C       -3.5570    -0.7820     0.3370 C.ar  1 <1>  -0.1430 
 13 C       -1.9510    -2.4200    -0.3710 C.ar  1 <1>  -0.1500 
 14 C        3.5180     1.5390     0.3510 C.3   1 <1>  -0.0190 
 15 C       -3.2220    -1.8640    -0.4710 C.ar  1 <1>   0.0830 
 16 C       -4.9410    -0.1540     0.2530 C.3   1 <1>  -0.0970 
 17 C        4.7150     1.5750    -0.5960 C.2   1 <1>   0.5690 
 18 O       -4.1680    -2.3290    -1.3280 O.3   1 <1>  -0.3630 
 19 O        4.8770     0.6780    -1.3880 O.2   1 <1>  -0.5700 
 20 N        5.5750     2.6250    -0.5190 N.am  1 <1>  -0.7300 
 21 C       -3.9340    -3.4350    -2.1680 C.3   1 <1>   0.1200 
 22 C        6.7900     2.7820    -1.3460 C.3   1 <1>   0.1400 
 23 C       -5.2000    -3.6870    -2.9810 C.3   1 <1>  -0.2400 
 24 C        7.9790     3.0870    -0.4370 C.3   1 <1>  -0.1600 
 25 C        9.2610     3.2110    -1.2580 C.3   1 <1>   0.1200 
 26 O       10.3060     3.4770    -0.3950 O.3   1 <1>  -0.6800 
 27 H        2.5700    -0.4930     2.9820 H     1 <1>   0.0800 
 28 H        2.3400     1.2350     2.8970 H     1 <1>   0.0800 
 29 H        0.8970     2.1670     1.1050 H     1 <1>   0.0800 
 30 H        0.1140     1.0660    -0.0010 H     1 <1>   0.0800 
 31 H       -2.8830     0.5630     1.8500 H     1 <1>   0.1500 
 32 H       -0.0490    -2.3340     0.5910 H     1 <1>   0.1500 
 33 H        3.8040    -0.5220     0.9090 H     1 <1>   0.0800 
 34 H        4.5420     0.6080     2.0020 H     1 <1>   0.0800 
 35 H        2.0330     2.1720    -1.0740 H     1 <1>   0.0800 
 36 H        2.2340     0.4470    -0.9960 H     1 <1>   0.0800 
 37 H       -1.6570    -3.2570    -0.9760 H     1 <1>   0.1500 
 38 H        3.4690     2.4800     0.8680 H     1 <1>   0.0800 
 39 H       -5.0400     0.6680     0.9380 H     1 <1>   0.0800 
 40 H       -5.6880    -0.8910     0.4900 H     1 <1>   0.0800 
 41 H       -5.1180     0.2050    -0.7440 H     1 <1>   0.0800 
 42 H        5.4030     3.3700     0.1560 H     1 <1>   0.3700 
 43 H       -3.7010    -4.2870    -1.5530 H     1 <1>   0.0800 
 44 H       -3.1060    -3.2020    -2.8160 H     1 <1>   0.0800 
 45 H        6.6400     3.5840    -2.0490 H     1 <1>   0.0800 
 46 H        6.9760     1.8750    -1.9010 H     1 <1>   0.0800 
 47 H       -6.0240    -3.9020    -2.3240 H     1 <1>   0.0800 
 48 H       -5.0530    -4.5280    -3.6340 H     1 <1>   0.0800 
 49 H       -5.4330    -2.8240    -3.5790 H     1 <1>   0.0800 
 50 H        8.0950     2.2810     0.2670 H     1 <1>   0.0800 
 51 H        7.7980     4.0060     0.0890 H     1 <1>   0.0800 
 52 H        9.1990     4.0140    -1.9740 H     1 <1>   0.0800 
 53 H        9.4830     2.2900    -1.7710 H     1 <1>   0.0800 
 54 H       10.1660     4.3220     0.0730 H     1 <1>   0.4000 
@<TRIPOS>BOND
  1   1   2  2   
  2   1   3  2   
  3   1   4  am  
  4   1   5  1   
  5   4   6  1   
  6   4   7  1   
  7   5   8  ar  
  8   5   9  ar  
  9   6  10  1   
 10   6  27  1   
 11   6  28  1   
 12   7  11  1   
 13   7  29  1   
 14   7  30  1   
 15   8  12  ar  
 16   8  31  1   
 17   9  13  ar  
 18   9  32  1   
 19  10  14  1   
 20  10  33  1   
 21  10  34  1   
 22  11  14  1   
 23  11  35  1   
 24  11  36  1   
 25  12  15  ar  
 26  12  16  1   
 27  13  15  ar  
 28  13  37  1   
 29  14  17  1   
 30  14  38  1   
 31  15  18  1   
 32  16  39  1   
 33  16  40  1   
 34  16  41  1   
 35  17  19  2   
 36  17  20  am  
 37  18  21  1   
 38  20  22  1   
 39  20  42  1   
 40  21  23  1   
 41  21  43  1   
 42  21  44  1   
 43  22  24  1   
 44  22  45  1   
 45  22  46  1   
 46  23  47  1   
 47  23  48  1   
 48  23  49  1   
 49  24  25  1   
 50  24  50  1   
 51  24  51  1   
 52  25  26  1   
 53  25  52  1   
 54  25  53  1   
 55  26  54  1   
@<TRIPOS>SUBSTRUCTURE
  1 ****   7 GROUP 4 **** **** 0

# MOE 2024.06 (io_trps.svl 2023.06)
