@<TRIPOS>MOLECULE
4-Pyrimidin-2-yl-piperazine-1-carboxylic acid propylamide
37 38 1 0 0 
SMALL
USER_CHARGES


@<TRIPOS>ATOM
  1 O       -0.3270    -1.0550    -0.9510 O.2   1 <1>  -0.5700 
  2 C        0.0560    -2.1840    -0.7170 C.2   1 <1>   0.6900 
  3 N       -0.7750    -3.1090    -0.1470 N.am  1 <1>  -0.6600 
  4 N        1.3340    -2.4830    -1.0360 N.am  1 <1>  -0.7300 
  5 C       -2.0490    -2.6830     0.5170 C.3   1 <1>   0.1400 
  6 C       -0.7680    -4.5460    -0.5680 C.3   1 <1>   0.1400 
  7 C        2.2430    -3.2790    -0.1880 C.3   1 <1>   0.1400 
  8 C       -3.2770    -3.0430    -0.3370 C.3   1 <1>   0.2090 
  9 C       -2.0100    -4.8860    -1.4100 C.3   1 <1>   0.2090 
 10 C        3.4190    -2.4020     0.2410 C.3   1 <1>  -0.1600 
 11 N       -3.2590    -4.5000    -0.6830 N.pl3 1 <1>  -0.8380 
 12 C        4.3900    -3.1760     1.1390 C.3   1 <1>  -0.2400 
 13 C       -4.0480    -5.4190    -0.0220 C.ar  1 <1>   0.7200 
 14 N       -3.6370    -6.6880    -0.0190 N.ar  1 <1>  -0.6200 
 15 N       -5.1530    -4.9600     0.5650 N.ar  1 <1>  -0.6200 
 16 C       -4.4010    -7.5490     0.6070 C.ar  1 <1>   0.1600 
 17 C       -5.8980    -5.8430     1.1830 C.ar  1 <1>   0.1600 
 18 C       -5.5630    -7.1730     1.2350 C.ar  1 <1>  -0.1500 
 19 H        1.7910    -1.7160    -1.5270 H     1 <1>   0.3700 
 20 H       -2.0400    -1.6230     0.6970 H     1 <1>   0.0800 
 21 H       -2.1300    -3.1770     1.4680 H     1 <1>   0.0800 
 22 H       -0.7570    -5.1720     0.3070 H     1 <1>   0.0800 
 23 H        0.1100    -4.7640    -1.1480 H     1 <1>   0.0800 
 24 H        2.5970    -4.1280    -0.7480 H     1 <1>   0.0800 
 25 H        1.7150    -3.6340     0.6820 H     1 <1>   0.0800 
 26 H       -3.2560    -2.4640    -1.2440 H     1 <1>   0.0800 
 27 H       -4.1700    -2.7740     0.1970 H     1 <1>   0.0800 
 28 H       -2.0070    -5.9330    -1.6560 H     1 <1>   0.0800 
 29 H       -1.9650    -4.3410    -2.3370 H     1 <1>   0.0800 
 30 H        3.0450    -1.5490     0.7810 H     1 <1>   0.0800 
 31 H        3.9470    -2.0550    -0.6300 H     1 <1>   0.0800 
 32 H        3.8910    -3.5160     2.0290 H     1 <1>   0.0800 
 33 H        5.2070    -2.5390     1.4300 H     1 <1>   0.0800 
 34 H        4.7910    -4.0270     0.6170 H     1 <1>   0.0800 
 35 H       -4.0930    -8.5800     0.6200 H     1 <1>   0.1500 
 36 H       -6.7990    -5.4960     1.6600 H     1 <1>   0.1500 
 37 H       -6.1810    -7.8880     1.7430 H     1 <1>   0.1500 
@<TRIPOS>BOND
  1   1   2  2   
  2   2   3  am  
  3   2   4  am  
  4   3   5  1   
  5   3   6  1   
  6   4   7  1   
  7   4  19  1   
  8   5   8  1   
  9   5  20  1   
 10   5  21  1   
 11   6   9  1   
 12   6  22  1   
 13   6  23  1   
 14   7  10  1   
 15   7  24  1   
 16   7  25  1   
 17   8  11  1   
 18   8  26  1   
 19   8  27  1   
 20   9  11  1   
 21   9  28  1   
 22   9  29  1   
 23  10  12  1   
 24  10  30  1   
 25  10  31  1   
 26  11  13  1   
 27  12  32  1   
 28  12  33  1   
 29  12  34  1   
 30  13  14  ar  
 31  13  15  ar  
 32  14  16  ar  
 33  15  17  ar  
 34  16  18  ar  
 35  16  35  1   
 36  17  18  ar  
 37  17  36  1   
 38  18  37  1   
@<TRIPOS>SUBSTRUCTURE
  1 ****   6 GROUP 4 **** **** 0

# MOE 2024.06 (io_trps.svl 2023.06)
