@<TRIPOS>MOLECULE
1,7-Dimethyl-3-(2-oxo-2-phenyl-ethyl)-8-(tetrahydro-furan-2-ylmethyl)-1H,8H-imid
55 59 1 0 0 
SMALL
USER_CHARGES


@<TRIPOS>ATOM
  1 O        1.3860     0.0450    -2.0370 O.2   1 <1>  -0.5740 
  2 C        2.1610     0.9030    -1.6660 C.2   1 <1>   0.6870 
  3 N        1.7660     2.2330    -1.6700 N.am  1 <1>  -0.4250 
  4 N        3.4330     0.5530    -1.2320 N.am  1 <1>  -0.4410 
  5 C        2.6450     3.2460    -1.3190 C.2   1 <1>   0.7000 
  6 C        0.3050     2.5180    -1.5090 C.3   1 <1>   0.1950 
  7 C        4.2550     1.5580    -0.7630 C.2   1 <1>   0.4210 
  8 C        3.8520    -0.8770    -1.1670 C.3   1 <1>   0.0530 
  9 O        2.3270     4.4170    -1.4570 O.2   1 <1>  -0.5740 
 10 C        3.9180     2.8700    -0.8030 C.2   1 <1>   0.2710 
 11 C       -0.1160     2.4330    -0.0380 C.2   1 <1>   0.4180 
 12 N        5.4970     1.4370    -0.2170 N.pl3 1 <1>  -0.7030 
 13 N        5.0120     3.5760    -0.2780 N.pl3 1 <1>  -0.6330 
 14 O        0.7610     2.3590     0.7940 O.2   1 <1>  -0.5740 
 15 C       -1.5260     2.4440     0.3000 C.ar  1 <1>   0.0790 
 16 C        5.9200     2.6700     0.0600 C.cat 1 <1>   1.0690 
 17 C        5.5350     4.8090     0.0520 C.2   1 <1>   0.2230 
 18 C       -2.5390     2.6710    -0.6410 C.ar  1 <1>  -0.1570 
 19 C       -1.9320     2.2230     1.6190 C.ar  1 <1>  -0.1570 
 20 N        7.0150     3.2350     0.5880 N.pl3 1 <1>  -0.5710 
 21 C        6.7620     4.6010     0.5820 C.2   1 <1>   0.1580 
 22 C       -3.8740     2.6710    -0.2820 C.ar  1 <1>  -0.1570 
 23 C       -3.2650     2.2220     1.9830 C.ar  1 <1>  -0.1570 
 24 C        8.2000     2.5290     1.1710 C.3   1 <1>   0.1610 
 25 C        7.7520     5.6230     1.1090 C.3   1 <1>  -0.1090 
 26 C       -4.2410     2.4460     1.0310 C.ar  1 <1>  -0.1570 
 27 C        8.8760     1.5410     0.1990 C.3   1 <1>   0.1940 
 28 O        8.0090     0.5060    -0.1510 O.3   1 <1>  -0.5640 
 29 C       10.0770     0.8280     0.8020 C.3   1 <1>  -0.1670 
 30 C        8.7430    -0.5890    -0.6110 C.3   1 <1>   0.1130 
 31 C       10.1210    -0.4830     0.0350 C.3   1 <1>  -0.1670 
 32 H       -0.2650     1.8120    -2.0860 H     1 <1>   0.0730 
 33 H        0.0840     3.5020    -1.8830 H     1 <1>   0.0730 
 34 H        3.3330    -1.4530    -1.9150 H     1 <1>   0.0730 
 35 H        3.6140    -1.2780    -0.1970 H     1 <1>   0.0730 
 36 H        4.9080    -0.9690    -1.3450 H     1 <1>   0.0730 
 37 H        6.1570     0.6490    -0.1640 H     1 <1>   0.4450 
 38 H        4.9950     5.7290    -0.1150 H     1 <1>   0.1430 
 39 H       -2.3040     2.8550    -1.6720 H     1 <1>   0.1430 
 40 H       -1.1860     2.0470     2.3750 H     1 <1>   0.1430 
 41 H       -4.6340     2.8470    -1.0240 H     1 <1>   0.1430 
 42 H       -3.5440     2.0470     3.0080 H     1 <1>   0.1430 
 43 H        7.8950     1.9980     2.0560 H     1 <1>   0.0730 
 44 H        8.9350     3.2550     1.4700 H     1 <1>   0.0730 
 45 H        7.9530     5.4440     2.1510 H     1 <1>   0.0730 
 46 H        7.3560     6.6170     1.0050 H     1 <1>   0.0730 
 47 H        8.6740     5.5640     0.5590 H     1 <1>   0.0730 
 48 H       -5.2810     2.4450     1.3120 H     1 <1>   0.1430 
 49 H        9.1720     2.0450    -0.7060 H     1 <1>   0.0730 
 50 H        9.9120     0.6330     1.8480 H     1 <1>   0.0730 
 51 H       10.9830     1.3980     0.6880 H     1 <1>   0.0730 
 52 H        8.8140    -0.5260    -1.6840 H     1 <1>   0.0730 
 53 H        8.2340    -1.4950    -0.3270 H     1 <1>   0.0730 
 54 H       10.3110    -1.3170     0.6880 H     1 <1>   0.0730 
 55 H       10.8790    -0.4620    -0.7280 H     1 <1>   0.0730 
@<TRIPOS>BOND
  1   1   2  2   
  2   2   3  am  
  3   2   4  am  
  4   3   5  am  
  5   3   6  1   
  6   4   7  1   
  7   4   8  1   
  8   5   9  2   
  9   5  10  1   
 10   6  11  1   
 11   6  32  1   
 12   6  33  1   
 13   7  10  2   
 14   7  12  1   
 15   8  34  1   
 16   8  35  1   
 17   8  36  1   
 18  10  13  1   
 19  11  14  2   
 20  11  15  1   
 21  12  16  ar  
 22  12  37  1   
 23  13  16  ar  
 24  13  17  1   
 25  15  18  ar  
 26  15  19  ar  
 27  16  20  ar  
 28  17  21  2   
 29  17  38  1   
 30  18  22  ar  
 31  18  39  1   
 32  19  23  ar  
 33  19  40  1   
 34  20  21  1   
 35  20  24  1   
 36  21  25  1   
 37  22  26  ar  
 38  22  41  1   
 39  23  26  ar  
 40  23  42  1   
 41  24  27  1   
 42  24  43  1   
 43  24  44  1   
 44  25  45  1   
 45  25  46  1   
 46  25  47  1   
 47  26  48  1   
 48  27  28  1   
 49  27  29  1   
 50  27  49  1   
 51  28  30  1   
 52  29  31  1   
 53  29  50  1   
 54  29  51  1   
 55  30  31  1   
 56  30  52  1   
 57  30  53  1   
 58  31  54  1   
 59  31  55  1   
@<TRIPOS>SUBSTRUCTURE
  1 ****  10 GROUP 4 **** **** 0

# MOE 2024.06 (io_trps.svl 2023.06)
