@<TRIPOS>MOLECULE
5-[(2,5-Dioxo-1,2,3,4,5,6,7,8-octahydro-quinoline-4-carbonyl)-amino]-isophthalic
49 51 1 0 0 
SMALL
USER_CHARGES


@<TRIPOS>ATOM
  1 O       -2.2190    -0.9330     0.3770 O.2   1 <1>  -0.5700 
  2 C       -2.6070     0.1940     0.2280 C.2   1 <1>   0.5690 
  3 N       -3.6020     0.7080     0.9940 N.am  1 <1>  -0.5390 
  4 C       -2.0210     1.0700    -0.8530 C.3   1 <1>  -0.0990 
  5 C       -3.9330     2.0450     1.0490 C.2   1 <1>  -0.0290 
  6 C       -2.0340     2.5780    -0.5080 C.3   1 <1>   0.1190 
  7 C       -3.2220     2.9910     0.3840 C.2   1 <1>  -0.1240 
  8 C       -5.1290     2.3900     1.9290 C.3   1 <1>  -0.0220 
  9 C       -1.9950     3.3560    -1.8310 C.2   1 <1>   0.5690 
 10 C       -3.5000     4.3880     0.5070 C.2   1 <1>   0.4950 
 11 C       -5.1320     3.8670     2.3510 C.3   1 <1>  -0.1600 
 12 O       -2.9760     3.3760    -2.5320 O.2   1 <1>  -0.5700 
 13 N       -0.8640     3.9820    -2.2600 N.am  1 <1>  -0.5470 
 14 O       -2.7480     5.2670     0.1590 O.2   1 <1>  -0.5700 
 15 C       -4.8040     4.7940     1.1700 C.3   1 <1>  -0.0990 
 16 C        0.3780     4.1060    -1.6400 C.ar  1 <1>   0.1170 
 17 C        0.5660     5.0130    -0.6100 C.ar  1 <1>  -0.1500 
 18 C        1.4410     3.3230    -2.0550 C.ar  1 <1>  -0.1500 
 19 C        1.8000     5.1570     0.0220 C.ar  1 <1>   0.0860 
 20 C        2.6920     3.4180    -1.4550 C.ar  1 <1>   0.0860 
 21 C        2.0090     6.1010     1.1060 C.2   1 <1>   0.6340 
 22 C        2.8440     4.3490    -0.4300 C.ar  1 <1>  -0.1500 
 23 C        3.7870     2.5820    -1.9100 C.2   1 <1>   0.6340 
 24 O        3.0480     6.1660     1.7290 O.2   1 <1>  -0.5700 
 25 O        1.0070     6.9220     1.4280 O.3   1 <1>  -0.4300 
 26 O        4.0290     2.4300    -3.0840 O.2   1 <1>  -0.5700 
 27 O        4.5550     1.9220    -1.0400 O.3   1 <1>  -0.4300 
 28 C        1.1200     7.8700     2.4710 C.3   1 <1>   0.0400 
 29 C        4.1240     1.5090     0.2410 C.3   1 <1>   0.0400 
 30 H       -4.0580     0.0250     1.6020 H     1 <1>   0.3700 
 31 H       -2.6140     0.8960    -1.7320 H     1 <1>   0.0800 
 32 H       -1.0180     0.7520    -1.0680 H     1 <1>   0.0800 
 33 H       -1.1470     2.7940     0.0570 H     1 <1>   0.0800 
 34 H       -5.1240     1.7790     2.8150 H     1 <1>   0.0800 
 35 H       -6.0290     2.1700     1.3800 H     1 <1>   0.0800 
 36 H       -4.3880     4.0110     3.1160 H     1 <1>   0.0800 
 37 H       -6.0900     4.1270     2.7690 H     1 <1>   0.0800 
 38 H       -0.9950     4.4690    -3.1490 H     1 <1>   0.3700 
 39 H       -5.5870     4.7500     0.4340 H     1 <1>   0.0800 
 40 H       -4.7260     5.8090     1.5160 H     1 <1>   0.0800 
 41 H       -0.2670     5.6220    -0.2990 H     1 <1>   0.1500 
 42 H        1.3000     2.6270    -2.8650 H     1 <1>   0.1500 
 43 H        3.8130     4.4580     0.0280 H     1 <1>   0.1500 
 44 H        1.3210     7.3510     3.3930 H     1 <1>   0.0800 
 45 H        0.1920     8.4090     2.5430 H     1 <1>   0.0800 
 46 H        1.9250     8.5460     2.2420 H     1 <1>   0.0800 
 47 H        4.8040     0.7540     0.5940 H     1 <1>   0.0800 
 48 H        3.1320     1.0960     0.1670 H     1 <1>   0.0800 
 49 H        4.1400     2.3490     0.9130 H     1 <1>   0.0800 
@<TRIPOS>BOND
  1   1   2  2   
  2   2   3  am  
  3   2   4  1   
  4   3   5  1   
  5   3  30  1   
  6   4   6  1   
  7   4  31  1   
  8   4  32  1   
  9   5   7  2   
 10   5   8  1   
 11   6   7  1   
 12   6   9  1   
 13   6  33  1   
 14   7  10  1   
 15   8  11  1   
 16   8  34  1   
 17   8  35  1   
 18   9  12  2   
 19   9  13  am  
 20  10  14  2   
 21  10  15  1   
 22  11  15  1   
 23  11  36  1   
 24  11  37  1   
 25  13  16  1   
 26  13  38  1   
 27  15  39  1   
 28  15  40  1   
 29  16  17  ar  
 30  16  18  ar  
 31  17  19  ar  
 32  17  41  1   
 33  18  20  ar  
 34  18  42  1   
 35  19  21  1   
 36  19  22  ar  
 37  20  22  ar  
 38  20  23  1   
 39  21  24  2   
 40  21  25  1   
 41  22  43  1   
 42  23  26  2   
 43  23  27  1   
 44  25  28  1   
 45  27  29  1   
 46  28  44  1   
 47  28  45  1   
 48  28  46  1   
 49  29  47  1   
 50  29  48  1   
 51  29  49  1   
@<TRIPOS>SUBSTRUCTURE
  1 ****  16 GROUP 4 **** **** 0

# MOE 2024.06 (io_trps.svl 2023.06)
