@<TRIPOS>MOLECULE
N-[2-(4-Acetyl-piperazin-1-ylmethyl)-1-methyl-1H-benzoimidazol-5-yl]-2-m-tolylox
61 64 1 0 0 
SMALL
USER_CHARGES


@<TRIPOS>ATOM
  1 O       -1.4540    -1.2130    -1.4300 O.2   1 <1>  -0.5700 
  2 C       -1.1180    -0.0550    -1.5000 C.2   1 <1>   0.5690 
  3 N        0.1480     0.3800    -1.2200 N.am  1 <1>  -0.5470 
  4 C       -2.1790     0.9710    -1.8930 C.3   1 <1>   0.1810 
  5 C        1.2730    -0.2910    -0.7130 C.ar  1 <1>   0.1170 
  6 O       -1.6830     2.3070    -1.9240 O.3   1 <1>  -0.3630 
  7 C        2.1870     0.4210     0.0380 C.ar  1 <1>  -0.1500 
  8 C        1.4980    -1.6580    -0.9530 C.ar  1 <1>  -0.1500 
  9 C       -1.3640     2.9970    -0.7990 C.ar  1 <1>   0.0830 
 10 C        3.3110    -0.2190     0.5490 C.ar  1 <1>   0.2270 
 11 C        2.6080    -2.3000    -0.4510 C.ar  1 <1>  -0.1500 
 12 C       -1.5240     2.4980     0.4920 C.ar  1 <1>  -0.1500 
 13 C       -0.8220     4.2590    -0.9800 C.ar  1 <1>  -0.1500 
 14 N        4.3170     0.2900     1.3090 N.2   1 <1>  -0.5650 
 15 C        3.5190    -1.5610     0.3070 C.ar  1 <1>  -0.1520 
 16 C       -1.1280     3.2500     1.5850 C.ar  1 <1>  -0.1430 
 17 C       -0.4310     5.0140     0.1100 C.ar  1 <1>  -0.1500 
 18 C        5.1110    -0.7080     1.5100 C.2   1 <1>   0.0060 
 19 N        4.6860    -1.8720     0.9340 N.pl3 1 <1>   0.0480 
 20 C       -0.5800     4.5080     1.3900 C.ar  1 <1>  -0.1500 
 21 C       -1.2810     2.6960     2.9900 C.3   1 <1>  -0.0970 
 22 C        6.3930    -0.6000     2.3350 C.3   1 <1>   0.2900 
 23 C        5.2720    -3.2260     0.9780 C.3   1 <1>   0.0160 
 24 N        7.5650    -0.1280     1.5620 N.3   1 <1>  -0.8100 
 25 C        8.7740    -0.0820     2.4120 C.3   1 <1>   0.1100 
 26 C        7.8160    -0.8750     0.3120 C.3   1 <1>   0.1100 
 27 C        9.9790     0.5090     1.6630 C.3   1 <1>   0.1400 
 28 C        9.0030    -0.2880    -0.4720 C.3   1 <1>   0.1400 
 29 N       10.2220    -0.2290     0.3890 N.am  1 <1>  -0.6600 
 30 C       11.4310    -0.8090     0.1140 C.2   1 <1>   0.5690 
 31 O       12.3490    -0.7870     0.8980 O.2   1 <1>  -0.5700 
 32 C       11.6620    -1.5140    -1.2020 C.3   1 <1>  -0.1790 
 33 H        0.2390     1.3990    -1.2520 H     1 <1>   0.3700 
 34 H       -3.0130     0.9260    -1.2170 H     1 <1>   0.0800 
 35 H       -2.5300     0.7380    -2.8800 H     1 <1>   0.0800 
 36 H        2.0580     1.4650     0.2490 H     1 <1>   0.1500 
 37 H        0.7880    -2.2090    -1.5420 H     1 <1>   0.1500 
 38 H        2.7710    -3.3470    -0.6370 H     1 <1>   0.1500 
 39 H       -1.9450     1.5260     0.6670 H     1 <1>   0.1500 
 40 H       -0.7050     4.6450    -1.9770 H     1 <1>   0.1500 
 41 H       -0.0080     5.9930    -0.0360 H     1 <1>   0.1500 
 42 H       -0.2670     5.0990     2.2330 H     1 <1>   0.1500 
 43 H       -0.3890     2.1630     3.2680 H     1 <1>   0.0800 
 44 H       -2.1180     2.0230     3.0430 H     1 <1>   0.0800 
 45 H       -1.4420     3.4930     3.6940 H     1 <1>   0.0800 
 46 H        6.6150    -1.5470     2.7940 H     1 <1>   0.0800 
 47 H        6.2080     0.1050     3.1260 H     1 <1>   0.0800 
 48 H        6.2570    -3.1980     1.4010 H     1 <1>   0.0800 
 49 H        4.6430    -3.8610     1.5760 H     1 <1>   0.0800 
 50 H        5.3270    -3.6190    -0.0210 H     1 <1>   0.0800 
 51 H        9.0270    -1.0740     2.7470 H     1 <1>   0.0800 
 52 H        8.5780     0.5260     3.2780 H     1 <1>   0.0800 
 53 H        6.9450    -0.8220    -0.3190 H     1 <1>   0.0800 
 54 H        8.0180    -1.9070     0.5340 H     1 <1>   0.0800 
 55 H       10.8470     0.4670     2.2980 H     1 <1>   0.0800 
 56 H        9.7830     1.5430     1.4400 H     1 <1>   0.0800 
 57 H        8.7490     0.7090    -0.7900 H     1 <1>   0.0800 
 58 H        9.1730    -0.8820    -1.3500 H     1 <1>   0.0800 
 59 H       11.0230    -2.3720    -1.2720 H     1 <1>   0.0800 
 60 H       12.6850    -1.8390    -1.2630 H     1 <1>   0.0800 
 61 H       11.4670    -0.8410    -2.0150 H     1 <1>   0.0800 
@<TRIPOS>BOND
  1   1   2  2   
  2   2   3  am  
  3   2   4  1   
  4   3   5  1   
  5   3  33  1   
  6   4   6  1   
  7   4  34  1   
  8   4  35  1   
  9   5   7  ar  
 10   5   8  ar  
 11   6   9  1   
 12   7  10  ar  
 13   7  36  1   
 14   8  11  ar  
 15   8  37  1   
 16   9  12  ar  
 17   9  13  ar  
 18  10  14  1   
 19  10  15  ar  
 20  11  15  ar  
 21  11  38  1   
 22  12  16  ar  
 23  12  39  1   
 24  13  17  ar  
 25  13  40  1   
 26  14  18  2   
 27  15  19  1   
 28  16  20  ar  
 29  16  21  1   
 30  17  20  ar  
 31  17  41  1   
 32  18  19  1   
 33  18  22  1   
 34  19  23  1   
 35  20  42  1   
 36  21  43  1   
 37  21  44  1   
 38  21  45  1   
 39  22  24  1   
 40  22  46  1   
 41  22  47  1   
 42  23  48  1   
 43  23  49  1   
 44  23  50  1   
 45  24  25  1   
 46  24  26  1   
 47  25  27  1   
 48  25  51  1   
 49  25  52  1   
 50  26  28  1   
 51  26  53  1   
 52  26  54  1   
 53  27  29  1   
 54  27  55  1   
 55  27  56  1   
 56  28  29  1   
 57  28  57  1   
 58  28  58  1   
 59  29  30  am  
 60  30  31  2   
 61  30  32  1   
 62  32  59  1   
 63  32  60  1   
 64  32  61  1   
@<TRIPOS>SUBSTRUCTURE
  1 ****  10 GROUP 4 **** **** 0

# MOE 2024.06 (io_trps.svl 2023.06)
