@<TRIPOS>MOLECULE
2-(4-Ethyl-phenyl)-5,7-dimethyl-1,3-diaza-tricyclo[3.3.1.1*3,7*]decan-6-one
46 49 1 0 0 
SMALL
USER_CHARGES


@<TRIPOS>ATOM
  1 O       -0.5550    -0.5030     1.0540 O.2   1 <1>  -0.5700 
  2 C        0.3870    -1.0270     0.5480 C.2   1 <1>   0.4480 
  3 C        1.3540    -0.2730    -0.4040 C.3   1 <1>   0.0610 
  4 C        0.7830    -2.5000     0.8370 C.3   1 <1>   0.0610 
  5 C        2.7460    -0.3080     0.2850 C.3   1 <1>   0.3430 
  6 C        1.4620    -1.1160    -1.7170 C.3   1 <1>   0.1100 
  7 C        0.9190     1.1720    -0.7110 C.3   1 <1>  -0.2400 
  8 C        2.2030    -2.4550     1.4700 C.3   1 <1>   0.3430 
  9 C        0.9180    -3.2100    -0.5480 C.3   1 <1>   0.1100 
 10 C       -0.2120    -3.2450     1.7460 C.3   1 <1>  -0.2400 
 11 N        2.9840    -1.7560     0.4260 N.4   1 <1>  -0.9590 
 12 N        1.9490    -2.5070    -1.4060 N.3   1 <1>  -0.8100 
 13 C        3.3240    -2.4850    -0.7870 C.3   1 <1>   0.8360 
 14 C        3.9030    -3.8730    -0.5050 C.ar  1 <1>  -0.1440 
 15 C        4.8020    -4.0650     0.5380 C.ar  1 <1>  -0.1500 
 16 C        3.5720    -4.9640    -1.3020 C.ar  1 <1>  -0.1500 
 17 C        5.3280    -5.3180     0.7980 C.ar  1 <1>  -0.1500 
 18 C        4.0990    -6.2160    -1.0400 C.ar  1 <1>  -0.1500 
 19 C        4.9760    -6.4020     0.0140 C.ar  1 <1>  -0.1440 
 20 C        5.5580    -7.7790     0.2970 C.3   1 <1>  -0.0170 
 21 C        6.8640    -7.9780    -0.4740 C.3   1 <1>  -0.2400 
 22 H        2.7180     0.1780     1.2480 H     1 <1>   0.0800 
 23 H        3.5010     0.1510    -0.3330 H     1 <1>   0.0800 
 24 H        0.4970    -1.1710    -2.2000 H     1 <1>   0.0800 
 25 H        2.1400    -0.6440    -2.4110 H     1 <1>   0.0800 
 26 H        1.6160     1.6590    -1.3710 H     1 <1>   0.0800 
 27 H        0.8480     1.7470     0.1970 H     1 <1>   0.0800 
 28 H       -0.0520     1.1780    -1.1780 H     1 <1>   0.0800 
 29 H        2.5800    -3.4510     1.6420 H     1 <1>   0.0800 
 30 H        2.2030    -1.9020     2.3960 H     1 <1>   0.0800 
 31 H       -0.0350    -3.2090    -1.0560 H     1 <1>   0.0800 
 32 H        1.1960    -4.2420    -0.4050 H     1 <1>   0.0800 
 33 H       -0.3000    -2.7490     2.6980 H     1 <1>   0.0800 
 34 H        0.1020    -4.2610     1.9150 H     1 <1>   0.0800 
 35 H       -1.1900    -3.2630     1.2940 H     1 <1>   0.0800 
 36 H        2.1200    -1.8150    -0.0470 H     1 <1>   0.4500 
 37 H        4.0080    -1.9220    -1.4040 H     1 <1>   0.0800 
 38 H        5.1120    -3.2420     1.1610 H     1 <1>   0.1500 
 39 H        2.9030    -4.8540    -2.1390 H     1 <1>   0.1500 
 40 H        6.0220    -5.4490     1.6110 H     1 <1>   0.1500 
 41 H        3.8290    -7.0490    -1.6670 H     1 <1>   0.1500 
 42 H        4.8520    -8.5390     0.0100 H     1 <1>   0.0800 
 43 H        5.7420    -7.8870     1.3520 H     1 <1>   0.0800 
 44 H        6.6880    -7.8900    -1.5320 H     1 <1>   0.0800 
 45 H        7.2690    -8.9530    -0.2710 H     1 <1>   0.0800 
 46 H        7.5850    -7.2350    -0.1820 H     1 <1>   0.0800 
@<TRIPOS>BOND
  1   1   2  2   
  2   2   3  1   
  3   2   4  1   
  4   3   5  1   
  5   3   6  1   
  6   3   7  1   
  7   4   8  1   
  8   4   9  1   
  9   4  10  1   
 10   5  11  1   
 11   5  22  1   
 12   5  23  1   
 13   6  12  1   
 14   6  24  1   
 15   6  25  1   
 16   7  26  1   
 17   7  27  1   
 18   7  28  1   
 19   8  11  1   
 20   8  29  1   
 21   8  30  1   
 22   9  12  1   
 23   9  31  1   
 24   9  32  1   
 25  10  33  1   
 26  10  34  1   
 27  10  35  1   
 28  11  13  1   
 29  11  36  1   
 30  12  13  1   
 31  13  14  1   
 32  13  37  1   
 33  14  15  ar  
 34  14  16  ar  
 35  15  17  ar  
 36  15  38  1   
 37  16  18  ar  
 38  16  39  1   
 39  17  19  ar  
 40  17  40  1   
 41  18  19  ar  
 42  18  41  1   
 43  19  20  1   
 44  20  21  1   
 45  20  42  1   
 46  20  43  1   
 47  21  44  1   
 48  21  45  1   
 49  21  46  1   
@<TRIPOS>SUBSTRUCTURE
  1 ****  13 GROUP 4 **** **** 0

# MOE 2024.06 (io_trps.svl 2023.06)
