@<TRIPOS>MOLECULE
5-Chloro-2-methyl-1-(2-piperidin-1-yl-ethyl)-1H-benzoimidazole
40 42 1 0 0 
SMALL
USER_CHARGES


@<TRIPOS>ATOM
  1 CL       0.5850    -0.8760     2.1660 Cl    1 <1>  -0.1770 
  2 C        2.0110    -1.4190     1.3150 C.ar  1 <1>   0.1770 
  3 C        3.0430    -0.5420     1.0880 C.ar  1 <1>  -0.1500 
  4 C        2.0600    -2.7490     0.8840 C.ar  1 <1>  -0.1500 
  5 C        4.1640    -1.0110     0.4090 C.ar  1 <1>   0.2270 
  6 C        3.1680    -3.2140     0.2100 C.ar  1 <1>  -0.1500 
  7 N        5.3000    -0.3480     0.0720 N.2   1 <1>  -0.5650 
  8 C        4.2270    -2.3250    -0.0200 C.ar  1 <1>  -0.1520 
  9 C        6.0190    -1.2190    -0.5390 C.2   1 <1>   0.0060 
 10 N        5.4370    -2.4480    -0.6310 N.pl3 1 <1>   0.0480 
 11 C        7.3890    -0.8840    -1.0980 C.3   1 <1>  -0.0600 
 12 C        6.0570    -3.7180    -1.0380 C.3   1 <1>   0.0960 
 13 C        6.5840    -4.4040     0.2270 C.3   1 <1>   0.3430 
 14 N        7.2920    -5.6980    -0.0520 N.4   1 <1>  -0.9590 
 15 C        6.3730    -6.7610    -0.5710 C.3   1 <1>   0.3430 
 16 C        7.9990    -6.1650     1.1810 C.3   1 <1>   0.3430 
 17 C        7.1800    -8.0080    -0.9360 C.3   1 <1>  -0.1600 
 18 C        8.8440    -7.3980     0.8560 C.3   1 <1>  -0.1600 
 19 C        7.9970    -8.5250     0.2540 C.3   1 <1>  -0.1600 
 20 H        3.0070     0.4790     1.4160 H     1 <1>   0.1500 
 21 H        1.2180    -3.3870     1.0850 H     1 <1>   0.1500 
 22 H        3.2080    -4.2300    -0.1360 H     1 <1>   0.1500 
 23 H        7.6020     0.1570    -0.9290 H     1 <1>   0.0800 
 24 H        7.4130    -1.0630    -2.1580 H     1 <1>   0.0800 
 25 H        8.1490    -1.4670    -0.6140 H     1 <1>   0.0800 
 26 H        6.8570    -3.5130    -1.7240 H     1 <1>   0.0800 
 27 H        5.3100    -4.3170    -1.5250 H     1 <1>   0.0800 
 28 H        5.7590    -4.5830     0.8990 H     1 <1>   0.0800 
 29 H        7.2670    -3.7270     0.7150 H     1 <1>   0.0800 
 30 H        8.0220    -5.5490    -0.7620 H     1 <1>   0.4500 
 31 H        5.8490    -6.4110    -1.4460 H     1 <1>   0.0800 
 32 H        5.6450    -7.0150     0.1830 H     1 <1>   0.0800 
 33 H        7.2790    -6.4140     1.9440 H     1 <1>   0.0800 
 34 H        8.6390    -5.3840     1.5610 H     1 <1>   0.0800 
 35 H        7.8350    -7.7840    -1.7610 H     1 <1>   0.0800 
 36 H        6.5060    -8.7800    -1.2650 H     1 <1>   0.0800 
 37 H        9.3120    -7.7500     1.7600 H     1 <1>   0.0800 
 38 H        9.6320    -7.1250     0.1750 H     1 <1>   0.0800 
 39 H        8.6340    -9.3350    -0.0620 H     1 <1>   0.0800 
 40 H        7.3290    -8.9130     1.0060 H     1 <1>   0.0800 
@<TRIPOS>BOND
  1   1   2  1   
  2   2   3  ar  
  3   2   4  ar  
  4   3   5  ar  
  5   3  20  1   
  6   4   6  ar  
  7   4  21  1   
  8   5   7  1   
  9   5   8  ar  
 10   6   8  ar  
 11   6  22  1   
 12   7   9  2   
 13   8  10  1   
 14   9  10  1   
 15   9  11  1   
 16  10  12  1   
 17  11  23  1   
 18  11  24  1   
 19  11  25  1   
 20  12  13  1   
 21  12  26  1   
 22  12  27  1   
 23  13  14  1   
 24  13  28  1   
 25  13  29  1   
 26  14  15  1   
 27  14  16  1   
 28  14  30  1   
 29  15  17  1   
 30  15  31  1   
 31  15  32  1   
 32  16  18  1   
 33  16  33  1   
 34  16  34  1   
 35  17  19  1   
 36  17  35  1   
 37  17  36  1   
 38  18  19  1   
 39  18  37  1   
 40  18  38  1   
 41  19  39  1   
 42  19  40  1   
@<TRIPOS>SUBSTRUCTURE
  1 ****  10 GROUP 4 **** **** 0

# MOE 2024.06 (io_trps.svl 2023.06)
