@<TRIPOS>MOLECULE
1-[1-(2,5-Dichloro-benzoyl)-piperidine-4-carbonyl]-piperidine-4-carboxylic acid
55 57 1 0 0 
SMALL
USER_CHARGES


@<TRIPOS>ATOM
  1 CL       4.3740     0.7440    -2.6270 Cl    1 <1>  -0.1770 
  2 C        3.6830    -0.4330    -1.5390 C.ar  1 <1>   0.1770 
  3 C        3.0510    -0.0200    -0.3650 C.ar  1 <1>   0.0860 
  4 C        3.7850    -1.7690    -1.8900 C.ar  1 <1>  -0.1500 
  5 C        2.9550     1.3720     0.0050 C.2   1 <1>   0.5440 
  6 C        2.5020    -1.0090     0.4510 C.ar  1 <1>  -0.1500 
  7 C        3.2420    -2.7370    -1.0630 C.ar  1 <1>  -0.1500 
  8 O        1.8690     1.9140    -0.0660 O.2   1 <1>  -0.5700 
  9 N        4.0400     2.0820     0.4790 N.am  1 <1>  -0.6600 
 10 C        2.6040    -2.3410     0.0990 C.ar  1 <1>   0.1770 
 11 C        5.3400     1.4610     0.8500 C.3   1 <1>   0.1400 
 12 C        3.9710     3.5560     0.6880 C.3   1 <1>   0.1400 
 13 CL       1.9160    -3.5550     1.1450 Cl    1 <1>  -0.1770 
 14 C        6.4830     2.1440     0.0950 C.3   1 <1>  -0.1600 
 15 C        5.1090     4.2390    -0.0740 C.3   1 <1>  -0.1600 
 16 C        6.4880     3.6690     0.3200 C.3   1 <1>  -0.0190 
 17 C        7.6520     4.3310    -0.4350 C.2   1 <1>   0.5690 
 18 O        7.4030     4.8890    -1.4790 O.2   1 <1>  -0.5700 
 19 N        8.9420     4.2830     0.0500 N.am  1 <1>  -0.6600 
 20 C        9.3850     3.6390     1.3180 C.3   1 <1>   0.1400 
 21 C       10.0690     4.8470    -0.7440 C.3   1 <1>   0.1400 
 22 C       10.3530     2.4980     0.9960 C.3   1 <1>  -0.1600 
 23 C       11.0380     3.7200    -1.1100 C.3   1 <1>  -0.1600 
 24 C       11.5460     2.9750     0.1410 C.3   1 <1>  -0.0190 
 25 C       12.4870     1.8350    -0.2450 C.2   1 <1>   0.6590 
 26 O       12.2020     0.6740    -0.0910 O.2   1 <1>  -0.5700 
 27 O       13.6510     2.2080    -0.7590 O.3   1 <1>  -0.4300 
 28 C       14.6120     1.2610    -1.1640 C.3   1 <1>   0.1200 
 29 C       15.8170     2.0160    -1.7150 C.3   1 <1>  -0.2400 
 30 H        4.2840    -2.0430    -2.8040 H     1 <1>   0.1500 
 31 H        1.9940    -0.7300     1.3570 H     1 <1>   0.1500 
 32 H        3.3060    -3.7820    -1.3110 H     1 <1>   0.1500 
 33 H        5.3460     0.4090     0.6300 H     1 <1>   0.0800 
 34 H        5.4870     1.5780     1.9110 H     1 <1>   0.0800 
 35 H        4.0490     3.7660     1.7410 H     1 <1>   0.0800 
 36 H        3.0290     3.9480     0.3400 H     1 <1>   0.0800 
 37 H        6.3830     1.9400    -0.9570 H     1 <1>   0.0800 
 38 H        7.4140     1.7180     0.4160 H     1 <1>   0.0800 
 39 H        5.0850     5.2960     0.1240 H     1 <1>   0.0800 
 40 H        4.9420     4.1040    -1.1290 H     1 <1>   0.0800 
 41 H        6.6110     3.8710     1.3660 H     1 <1>   0.0800 
 42 H        8.5580     3.2530     1.8820 H     1 <1>   0.0800 
 43 H        9.8810     4.3770     1.9270 H     1 <1>   0.0800 
 44 H       10.5740     5.5960    -0.1580 H     1 <1>   0.0800 
 45 H        9.7130     5.3180    -1.6440 H     1 <1>   0.0800 
 46 H        9.8190     1.7270     0.4690 H     1 <1>   0.0800 
 47 H       10.7180     2.0700     1.9130 H     1 <1>   0.0800 
 48 H       11.8710     4.1370    -1.6490 H     1 <1>   0.0800 
 49 H       10.5350     3.0320    -1.7670 H     1 <1>   0.0800 
 50 H       12.1210     3.6660     0.7310 H     1 <1>   0.0800 
 51 H       14.1730     0.6300    -1.9190 H     1 <1>   0.0800 
 52 H       14.8860     0.6650    -0.3090 H     1 <1>   0.0800 
 53 H       15.5260     2.6150    -2.5590 H     1 <1>   0.0800 
 54 H       16.5680     1.3160    -2.0350 H     1 <1>   0.0800 
 55 H       16.2400     2.6470    -0.9540 H     1 <1>   0.0800 
@<TRIPOS>BOND
  1   1   2  1   
  2   2   3  ar  
  3   2   4  ar  
  4   3   5  1   
  5   3   6  ar  
  6   4   7  ar  
  7   4  30  1   
  8   5   8  2   
  9   5   9  am  
 10   6  10  ar  
 11   6  31  1   
 12   7  10  ar  
 13   7  32  1   
 14   9  11  1   
 15   9  12  1   
 16  10  13  1   
 17  11  14  1   
 18  11  33  1   
 19  11  34  1   
 20  12  15  1   
 21  12  35  1   
 22  12  36  1   
 23  14  16  1   
 24  14  37  1   
 25  14  38  1   
 26  15  16  1   
 27  15  39  1   
 28  15  40  1   
 29  16  17  1   
 30  16  41  1   
 31  17  18  2   
 32  17  19  am  
 33  19  20  1   
 34  19  21  1   
 35  20  22  1   
 36  20  42  1   
 37  20  43  1   
 38  21  23  1   
 39  21  44  1   
 40  21  45  1   
 41  22  24  1   
 42  22  46  1   
 43  22  47  1   
 44  23  24  1   
 45  23  48  1   
 46  23  49  1   
 47  24  25  1   
 48  24  50  1   
 49  25  26  2   
 50  25  27  1   
 51  27  28  1   
 52  28  29  1   
 53  28  51  1   
 54  28  52  1   
 55  29  53  1   
 56  29  54  1   
 57  29  55  1   
@<TRIPOS>SUBSTRUCTURE
  1 ****  14 GROUP 4 **** **** 0

# MOE 2024.06 (io_trps.svl 2023.06)
