@<TRIPOS>MOLECULE
3-Methyl-6,7-dihydro-5H-thiazolo[3,2-a]pyrimidine-2-carboxylic acid
23 24 1 0 0 
SMALL
USER_CHARGES


@<TRIPOS>ATOM
  1 S       -0.0680    -0.2450    -0.3930 S.3   1 <1>  -0.2320 
  2 C       -1.5770     0.5300    -0.1130 C.cat 1 <1>   0.8400 
  3 C        0.8040     1.3130    -0.3330 C.2   1 <1>  -0.1490 
  4 N       -2.7090    -0.1270    -0.0260 N.pl3 1 <1>  -0.7940 
  5 N       -1.4370     1.8400     0.0060 N.pl3 1 <1>  -0.6850 
  6 C       -0.1040     2.2880    -0.1010 C.2   1 <1>   0.2030 
  7 C        2.2330     1.3260    -0.5260 C.2   1 <1>   1.0500 
  8 C       -3.9960     0.5450     0.2220 C.3   1 <1>   0.3300 
  9 C       -2.6140     2.7000     0.2710 C.3   1 <1>   0.3300 
 10 C        0.1710     3.7770     0.0580 C.3   1 <1>  -0.1020 
 11 O        2.8910     0.2760    -0.4890 O.co2 1 <1>  -0.9000 
 12 O        2.8210     2.3990    -0.7290 O.co2 1 <1>  -0.9000 
 13 C       -3.8980     2.0120    -0.2230 C.3   1 <1>  -0.1600 
 14 H       -2.6980    -1.1460    -0.1100 H     1 <1>   0.4500 
 15 H       -4.2260     0.4890     1.2740 H     1 <1>   0.0800 
 16 H       -4.7800     0.0490    -0.3270 H     1 <1>   0.0800 
 17 H       -2.5030     3.6440    -0.2360 H     1 <1>   0.0800 
 18 H       -2.6750     2.8870     1.3300 H     1 <1>   0.0800 
 19 H       -0.2520     4.3190    -0.7660 H     1 <1>   0.0800 
 20 H        1.2240     3.9830     0.0820 H     1 <1>   0.0800 
 21 H       -0.2460     4.1360     0.9800 H     1 <1>   0.0800 
 22 H       -4.7560     2.5550     0.1310 H     1 <1>   0.0800 
 23 H       -3.9180     2.0520    -1.2980 H     1 <1>   0.0800 
@<TRIPOS>BOND
  1   1   2  1   
  2   1   3  1   
  3   2   4  ar  
  4   2   5  ar  
  5   3   6  2   
  6   3   7  1   
  7   4   8  1   
  8   4  14  1   
  9   5   6  1   
 10   5   9  1   
 11   6  10  1   
 12   7  11  ar  
 13   7  12  ar  
 14   8  13  1   
 15   8  15  1   
 16   8  16  1   
 17   9  13  1   
 18   9  17  1   
 19   9  18  1   
 20  10  19  1   
 21  10  20  1   
 22  10  21  1   
 23  13  22  1   
 24  13  23  1   
@<TRIPOS>SUBSTRUCTURE
  1 ****   5 GROUP 4 **** **** 0

# MOE 2024.06 (io_trps.svl 2023.06)
