@<TRIPOS>MOLECULE
tert-Butyl-[4-(3,5-dimethyl-pyrazol-1-yl)-6-morpholin-4-yl-[1,3,5]triazin-2-yl]-
49 51 1 0 0 
SMALL
USER_CHARGES


@<TRIPOS>ATOM
  1 O        0.6630     0.1410    -2.4820 O.3   1 <1>  -0.5600 
  2 C        0.4070     1.0960    -1.4900 C.3   1 <1>   0.1200 
  3 C        1.9050    -0.4930    -2.3380 C.3   1 <1>   0.1200 
  4 C        1.4630     2.2160    -1.5070 C.3   1 <1>   0.2090 
  5 C        3.0590     0.5220    -2.4150 C.3   1 <1>   0.2090 
  6 N        2.8470     1.6500    -1.4520 N.pl3 1 <1>  -0.8380 
  7 C        3.8730     2.2490    -0.7600 C.ar  1 <1>   0.7200 
  8 N        5.0180     1.6140    -0.7130 N.ar  1 <1>  -0.6200 
  9 N        3.6340     3.4020    -0.1980 N.ar  1 <1>  -0.6200 
 10 C        5.9770     2.2280    -0.0520 C.ar  1 <1>   0.5970 
 11 C        4.6490     3.9210     0.4300 C.ar  1 <1>   0.7200 
 12 N        5.8330     3.3910     0.5500 N.ar  1 <1>  -0.6200 
 13 N        7.2540     1.5730     0.0460 N.pl3 1 <1>   0.5930 
 14 N        4.5270     5.1150     1.0500 N.pl3 1 <1>  -0.8690 
 15 N        8.1470     1.4370    -0.9880 N.2   1 <1>  -0.7070 
 16 C        7.7830     0.9850     1.1660 C.2   1 <1>  -0.3320 
 17 C        3.5910     6.2110     0.8040 C.3   1 <1>   0.3690 
 18 C        9.1590     0.7990    -0.5040 C.2   1 <1>   0.1080 
 19 C        8.9920     0.4870     0.8400 C.2   1 <1>  -0.1500 
 20 C        7.0770     0.9350     2.5120 C.3   1 <1>  -0.0600 
 21 C        2.2040     5.8310     1.3190 C.3   1 <1>  -0.2400 
 22 C        4.1210     7.4000     1.6020 C.3   1 <1>  -0.2400 
 23 C        3.5670     6.5680    -0.6830 C.3   1 <1>  -0.2400 
 24 C       10.3700     0.4490    -1.3360 C.3   1 <1>  -0.0590 
 25 H        0.4020     0.6040    -0.5320 H     1 <1>   0.0800 
 26 H       -0.5690     1.5060    -1.6720 H     1 <1>   0.0800 
 27 H        1.9970    -1.2180    -3.1260 H     1 <1>   0.0800 
 28 H        1.9220    -1.0050    -1.3920 H     1 <1>   0.0800 
 29 H        1.2820     2.8670    -0.6700 H     1 <1>   0.0800 
 30 H        1.3540     2.7940    -2.4070 H     1 <1>   0.0800 
 31 H        3.1130     0.9180    -3.4140 H     1 <1>   0.0800 
 32 H        3.9820     0.0060    -2.2170 H     1 <1>   0.0800 
 33 H        5.4090     5.4260     1.4470 H     1 <1>   0.4000 
 34 H        9.6970    -0.0400     1.4570 H     1 <1>   0.1500 
 35 H        6.1330     0.4260     2.4190 H     1 <1>   0.0800 
 36 H        6.9000     1.9310     2.8780 H     1 <1>   0.0800 
 37 H        7.6810     0.4090     3.2300 H     1 <1>   0.0800 
 38 H        2.2590     5.5330     2.3500 H     1 <1>   0.0800 
 39 H        1.7920     5.0230     0.7450 H     1 <1>   0.0800 
 40 H        1.5370     6.6690     1.2380 H     1 <1>   0.0800 
 41 H        4.1650     7.1600     2.6490 H     1 <1>   0.0800 
 42 H        3.4700     8.2470     1.4790 H     1 <1>   0.0800 
 43 H        5.1010     7.6780     1.2600 H     1 <1>   0.0800 
 44 H        3.1460     5.7680    -1.2620 H     1 <1>   0.0800 
 45 H        4.5620     6.7690    -1.0360 H     1 <1>   0.0800 
 46 H        2.9640     7.4420    -0.8420 H     1 <1>   0.0800 
 47 H       10.8210     1.3500    -1.7080 H     1 <1>   0.0800 
 48 H       10.0670    -0.1580    -2.1690 H     1 <1>   0.0800 
 49 H       11.0880    -0.0900    -0.7480 H     1 <1>   0.0800 
@<TRIPOS>BOND
  1   1   2  1   
  2   1   3  1   
  3   2   4  1   
  4   2  25  1   
  5   2  26  1   
  6   3   5  1   
  7   3  27  1   
  8   3  28  1   
  9   4   6  1   
 10   4  29  1   
 11   4  30  1   
 12   5   6  1   
 13   5  31  1   
 14   5  32  1   
 15   6   7  1   
 16   7   8  ar  
 17   7   9  ar  
 18   8  10  ar  
 19   9  11  ar  
 20  10  12  ar  
 21  10  13  1   
 22  11  12  ar  
 23  11  14  1   
 24  13  15  1   
 25  13  16  1   
 26  14  17  1   
 27  14  33  1   
 28  15  18  2   
 29  16  19  2   
 30  16  20  1   
 31  17  21  1   
 32  17  22  1   
 33  17  23  1   
 34  18  19  1   
 35  18  24  1   
 36  19  34  1   
 37  20  35  1   
 38  20  36  1   
 39  20  37  1   
 40  21  38  1   
 41  21  39  1   
 42  21  40  1   
 43  22  41  1   
 44  22  42  1   
 45  22  43  1   
 46  23  44  1   
 47  23  45  1   
 48  23  46  1   
 49  24  47  1   
 50  24  48  1   
 51  24  49  1   
@<TRIPOS>SUBSTRUCTURE
  1 ****   8 GROUP 4 **** **** 0

# MOE 2024.06 (io_trps.svl 2023.06)
