@<TRIPOS>MOLECULE
N-{1-[3-(4-Chloro-phenyl)-[1,2,4]oxadiazol-5-yl]-ethyl}-propionamide
33 34 1 0 0 
SMALL
USER_CHARGES


@<TRIPOS>ATOM
  1 CL       1.3970    -0.7000     0.3440 Cl    1 <1>  -0.1770 
  2 C        2.4900     0.6440     0.1410 C.ar  1 <1>   0.1770 
  3 C        2.1050     1.9030     0.5580 C.ar  1 <1>  -0.1500 
  4 C        3.7270     0.4350    -0.4350 C.ar  1 <1>  -0.1500 
  5 C        2.9760     2.9660     0.3940 C.ar  1 <1>  -0.1500 
  6 C        4.5900     1.5060    -0.5930 C.ar  1 <1>  -0.1500 
  7 C        4.2390     2.7970    -0.1840 C.ar  1 <1>   0.0540 
  8 C        5.1550     3.9130    -0.3560 C.2   1 <1>   0.4620 
  9 N        6.3270     3.8480    -0.8800 N.2   1 <1>  -0.4100 
 10 N        4.8550     5.1590     0.0260 N.2   1 <1>  -0.5650 
 11 O        6.8430     5.0350    -0.8540 O.3   1 <1>  -0.0190 
 12 C        5.9180     5.7770    -0.3020 C.2   1 <1>   0.2980 
 13 C        6.2240     7.2690    -0.1270 C.3   1 <1>   0.4000 
 14 N        7.1860     7.4810     0.9730 N.am  1 <1>  -0.7300 
 15 C        4.9810     8.1040     0.1870 C.3   1 <1>  -0.2400 
 16 C        8.5190     7.6870     0.9170 C.2   1 <1>   0.5690 
 17 O        9.1300     7.8190     1.9460 O.2   1 <1>  -0.5700 
 18 C        9.2410     7.7540    -0.4250 C.3   1 <1>  -0.0990 
 19 C       10.7720     7.8720    -0.3220 C.3   1 <1>  -0.2400 
 20 H        1.1370     2.0450     1.0040 H     1 <1>   0.1500 
 21 H        4.0080    -0.5530    -0.7530 H     1 <1>   0.1500 
 22 H        2.6710     3.9460     0.7220 H     1 <1>   0.1500 
 23 H        5.5540     1.3380    -1.0420 H     1 <1>   0.1500 
 24 H        6.6450     7.6300    -1.0490 H     1 <1>   0.0800 
 25 H        6.7980     7.3860     1.9130 H     1 <1>   0.3700 
 26 H        4.5260     7.7730     1.1040 H     1 <1>   0.0800 
 27 H        4.2620     7.9950    -0.6050 H     1 <1>   0.0800 
 28 H        5.2420     9.1430     0.2710 H     1 <1>   0.0800 
 29 H        8.8670     8.6020    -0.9680 H     1 <1>   0.0800 
 30 H        9.0080     6.8650    -0.9820 H     1 <1>   0.0800 
 31 H       11.0400     8.7670     0.2120 H     1 <1>   0.0800 
 32 H       11.2120     7.9090    -1.3030 H     1 <1>   0.0800 
 33 H       11.1740     7.0260     0.2080 H     1 <1>   0.0800 
@<TRIPOS>BOND
  1   1   2  1   
  2   2   3  ar  
  3   2   4  ar  
  4   3   5  ar  
  5   3  20  1   
  6   4   6  ar  
  7   4  21  1   
  8   5   7  ar  
  9   5  22  1   
 10   6   7  ar  
 11   6  23  1   
 12   7   8  1   
 13   8   9  2   
 14   8  10  1   
 15   9  11  1   
 16  10  12  2   
 17  11  12  1   
 18  12  13  1   
 19  13  14  1   
 20  13  15  1   
 21  13  24  1   
 22  14  16  am  
 23  14  25  1   
 24  15  26  1   
 25  15  27  1   
 26  15  28  1   
 27  16  17  2   
 28  16  18  1   
 29  18  19  1   
 30  18  29  1   
 31  18  30  1   
 32  19  31  1   
 33  19  32  1   
 34  19  33  1   
@<TRIPOS>SUBSTRUCTURE
  1 ****   8 GROUP 4 **** **** 0

# MOE 2024.06 (io_trps.svl 2023.06)
