@<TRIPOS>MOLECULE
N-tert-Butyl-6-ethoxy-N'-ethyl-[1,3,5]triazine-2,4-diamine
38 38 1 0 0 
SMALL
USER_CHARGES


@<TRIPOS>ATOM
  1 O        0.4600    -0.3690    -0.0150 O.3   1 <1>  -0.3630 
  2 C        1.5900    -1.0880    -0.1140 C.ar  1 <1>   0.7020 
  3 C       -0.8160    -0.9690    -0.0820 C.3   1 <1>   0.1200 
  4 N        1.4930    -2.3840    -0.2740 N.ar  1 <1>  -0.6200 
  5 N        2.6880    -0.3910    -0.0390 N.ar  1 <1>  -0.6200 
  6 C       -1.8650     0.1300     0.0640 C.3   1 <1>  -0.2400 
  7 C        2.6500    -2.9810    -0.3600 C.ar  1 <1>   0.7200 
  8 C        3.7630    -1.1170    -0.1390 C.ar  1 <1>   0.7200 
  9 N        3.8200    -2.4080    -0.3060 N.ar  1 <1>  -0.6200 
 10 N        2.5600    -4.3200    -0.5300 N.pl3 1 <1>  -0.8690 
 11 N        4.9210    -0.4240    -0.0650 N.pl3 1 <1>  -0.8690 
 12 C        3.5400    -5.3740    -0.2760 C.3   1 <1>   0.3690 
 13 C        6.2360    -0.9400    -0.4740 C.3   1 <1>   0.2090 
 14 C        4.6480    -5.3190    -1.3270 C.3   1 <1>  -0.2400 
 15 C        2.7810    -6.6920    -0.4090 C.3   1 <1>  -0.2400 
 16 C        4.0970    -5.2520     1.1430 C.3   1 <1>  -0.2400 
 17 C        7.2970     0.0700    -0.0600 C.3   1 <1>  -0.2400 
 18 H       -0.8970    -1.6860     0.7170 H     1 <1>   0.0800 
 19 H       -0.9090    -1.4660    -1.0330 H     1 <1>   0.0800 
 20 H       -1.7510     0.6260     1.0110 H     1 <1>   0.0800 
 21 H       -2.8490    -0.2990     0.0160 H     1 <1>   0.0800 
 22 H       -1.7630     0.8460    -0.7320 H     1 <1>   0.0800 
 23 H        1.5990    -4.6460    -0.5150 H     1 <1>   0.4000 
 24 H        4.7940     0.5860    -0.0810 H     1 <1>   0.4000 
 25 H        6.2480    -1.0860    -1.5410 H     1 <1>   0.0800 
 26 H        6.4170    -1.8880     0.0070 H     1 <1>   0.0800 
 27 H        4.2250    -5.3480    -2.3140 H     1 <1>   0.0800 
 28 H        5.3110    -6.1560    -1.2110 H     1 <1>   0.0800 
 29 H        5.2270    -4.4210    -1.2230 H     1 <1>   0.0800 
 30 H        3.4470    -7.5200    -0.2450 H     1 <1>   0.0800 
 31 H        2.3640    -6.7870    -1.3960 H     1 <1>   0.0800 
 32 H        1.9910    -6.7490     0.3170 H     1 <1>   0.0800 
 33 H        4.7330    -6.0890     1.3640 H     1 <1>   0.0800 
 34 H        3.2960    -5.2310     1.8600 H     1 <1>   0.0800 
 35 H        4.6830    -4.3570     1.2480 H     1 <1>   0.0800 
 36 H        7.1320     1.0100    -0.5550 H     1 <1>   0.0800 
 37 H        8.2690    -0.2960    -0.3360 H     1 <1>   0.0800 
 38 H        7.2750     0.2120     1.0050 H     1 <1>   0.0800 
@<TRIPOS>BOND
  1   1   2  1   
  2   1   3  1   
  3   2   4  ar  
  4   2   5  ar  
  5   3   6  1   
  6   3  18  1   
  7   3  19  1   
  8   4   7  ar  
  9   5   8  ar  
 10   6  20  1   
 11   6  21  1   
 12   6  22  1   
 13   7   9  ar  
 14   7  10  1   
 15   8   9  ar  
 16   8  11  1   
 17  10  12  1   
 18  10  23  1   
 19  11  13  1   
 20  11  24  1   
 21  12  14  1   
 22  12  15  1   
 23  12  16  1   
 24  13  17  1   
 25  13  25  1   
 26  13  26  1   
 27  14  27  1   
 28  14  28  1   
 29  14  29  1   
 30  15  30  1   
 31  15  31  1   
 32  15  32  1   
 33  16  33  1   
 34  16  34  1   
 35  16  35  1   
 36  17  36  1   
 37  17  37  1   
 38  17  38  1   
@<TRIPOS>SUBSTRUCTURE
  1 ****   7 GROUP 4 **** **** 0

# MOE 2024.06 (io_trps.svl 2023.06)
