@<TRIPOS>MOLECULE
3-(2-Hydroxy-phenyl)-4,5-dihydro-isoxazole-5-carboxylic acid (tetrahydro-furan-2
39 41 1 0 0 
SMALL
USER_CHARGES


@<TRIPOS>ATOM
  1 O       -0.0750    -2.7400     2.7660 O.2   1 <1>  -0.5700 
  2 C       -0.5830    -2.9560     1.6900 C.2   1 <1>   0.5690 
  3 N       -0.1450    -2.3460     0.5560 N.am  1 <1>  -0.7300 
  4 C       -1.7570    -3.9310     1.6030 C.3   1 <1>   0.2610 
  5 C        1.0090    -1.4150     0.4580 C.3   1 <1>   0.1400 
  6 O       -1.7700    -4.5510     0.3310 O.3   1 <1>  -0.2170 
  7 C       -3.1090    -3.2340     1.6500 C.3   1 <1>  -0.0990 
  8 C        2.3040    -2.1700     0.1320 C.3   1 <1>   0.2000 
  9 N       -2.7700    -4.1470    -0.4220 N.2   1 <1>  -0.5130 
 10 C       -3.5760    -3.4070     0.2260 C.2   1 <1>   0.3030 
 11 O        3.3150    -1.2590    -0.1440 O.3   1 <1>  -0.5600 
 12 C        2.2460    -3.0400    -1.1190 C.3   1 <1>  -0.1600 
 13 C       -4.7760    -2.7860    -0.3120 C.ar  1 <1>   0.0860 
 14 C        4.3350    -1.8800    -0.8580 C.3   1 <1>   0.1200 
 15 C        3.6890    -3.0500    -1.5970 C.3   1 <1>  -0.1600 
 16 C       -5.7630    -2.1180     0.4400 C.ar  1 <1>   0.0820 
 17 C       -4.9920    -2.8420    -1.6930 C.ar  1 <1>  -0.1500 
 18 O       -5.6870    -2.0070     1.7770 O.3   1 <1>  -0.5320 
 19 C       -6.8730    -1.5440    -0.1640 C.ar  1 <1>  -0.1500 
 20 C       -6.0970    -2.2740    -2.2970 C.ar  1 <1>  -0.1500 
 21 C       -7.0430    -1.6200    -1.5320 C.ar  1 <1>  -0.1500 
 22 H       -0.5720    -2.6480    -0.3280 H     1 <1>   0.3700 
 23 H       -1.6700    -4.6960     2.3520 H     1 <1>   0.0800 
 24 H        1.1330    -0.8990     1.3950 H     1 <1>   0.0800 
 25 H        0.8110    -0.6900    -0.3110 H     1 <1>   0.0800 
 26 H       -3.0130    -2.1980     1.9210 H     1 <1>   0.0800 
 27 H       -3.7650    -3.7390     2.3340 H     1 <1>   0.0800 
 28 H        2.6160    -2.7510     0.9840 H     1 <1>   0.0800 
 29 H        1.6150    -2.5750    -1.8560 H     1 <1>   0.0800 
 30 H        1.8720    -4.0240    -0.9000 H     1 <1>   0.0800 
 31 H        5.0760    -2.2210    -0.1550 H     1 <1>   0.0800 
 32 H        4.7680    -1.1610    -1.5320 H     1 <1>   0.0800 
 33 H        3.7540    -2.9210    -2.6620 H     1 <1>   0.0800 
 34 H        4.1820    -3.9670    -1.3230 H     1 <1>   0.0800 
 35 H       -4.2730    -3.3470    -2.3160 H     1 <1>   0.1500 
 36 H       -6.4440    -1.5380     2.1740 H     1 <1>   0.4500 
 37 H       -7.6140    -1.0360     0.4260 H     1 <1>   0.1500 
 38 H       -6.2220    -2.3410    -3.3650 H     1 <1>   0.1500 
 39 H       -7.9040    -1.1750    -2.0010 H     1 <1>   0.1500 
@<TRIPOS>BOND
  1   1   2  2   
  2   2   3  am  
  3   2   4  1   
  4   3   5  1   
  5   3  22  1   
  6   4   6  1   
  7   4   7  1   
  8   4  23  1   
  9   5   8  1   
 10   5  24  1   
 11   5  25  1   
 12   6   9  1   
 13   7  10  1   
 14   7  26  1   
 15   7  27  1   
 16   8  11  1   
 17   8  12  1   
 18   8  28  1   
 19   9  10  2   
 20  10  13  1   
 21  11  14  1   
 22  12  15  1   
 23  12  29  1   
 24  12  30  1   
 25  13  16  ar  
 26  13  17  ar  
 27  14  15  1   
 28  14  31  1   
 29  14  32  1   
 30  15  33  1   
 31  15  34  1   
 32  16  18  1   
 33  16  19  ar  
 34  17  20  ar  
 35  17  35  1   
 36  18  36  1   
 37  19  21  ar  
 38  19  37  1   
 39  20  21  ar  
 40  20  38  1   
 41  21  39  1   
@<TRIPOS>SUBSTRUCTURE
  1 ****   3 GROUP 4 **** **** 0

# MOE 2024.06 (io_trps.svl 2023.06)
