@<TRIPOS>MOLECULE
N-Ethyl-2-[2-methyl-4-(pyrrolidine-1-sulfonyl)-phenoxy]-acetamide
44 45 1 0 0 
SMALL
USER_CHARGES


@<TRIPOS>ATOM
  1 S       -0.3090     0.3380    -1.6060 S.o2  1 <1>   1.4470 
  2 O       -0.5490    -0.9510    -2.2190 O.2   1 <1>  -0.6500 
  3 O       -0.9150     1.5180    -2.1830 O.2   1 <1>  -0.6500 
  4 N       -0.8670     0.2380    -0.0100 N.am  1 <1>  -0.8490 
  5 C        1.4720     0.6060    -1.4020 C.ar  1 <1>  -0.0090 
  6 C       -0.4810    -0.9720     0.6950 C.3   1 <1>   0.1960 
  7 C       -2.3140     0.2980     0.0850 C.3   1 <1>   0.1960 
  8 C        1.9470     1.6290    -0.5890 C.ar  1 <1>  -0.1500 
  9 C        2.4010    -0.2010    -2.0480 C.ar  1 <1>  -0.1500 
 10 C       -1.3960    -1.0020     1.9120 C.3   1 <1>  -0.1600 
 11 C       -2.6270    -0.1970     1.4930 C.3   1 <1>  -0.1600 
 12 C        3.3020     1.8560    -0.4130 C.ar  1 <1>  -0.1430 
 13 C        3.7580     0.0090    -1.8900 C.ar  1 <1>  -0.1500 
 14 C        4.2080     1.0400    -1.0840 C.ar  1 <1>   0.0830 
 15 C        3.7550     2.9790     0.5100 C.3   1 <1>  -0.0970 
 16 O        5.5380     1.2210    -0.9710 O.3   1 <1>  -0.3630 
 17 C        6.0960     2.3020    -1.7100 C.3   1 <1>   0.1810 
 18 C        6.9160     3.2180    -0.8120 C.2   1 <1>   0.5690 
 19 O        7.1310     4.3480    -1.1790 O.2   1 <1>  -0.5700 
 20 N        7.3780     2.7450     0.3770 N.am  1 <1>  -0.7300 
 21 C        8.1940     3.4940     1.3480 C.3   1 <1>   0.1400 
 22 C        9.3680     2.6210     1.7720 C.3   1 <1>  -0.2400 
 23 H        0.5590    -0.9470     0.9730 H     1 <1>   0.0800 
 24 H       -0.6720    -1.8410     0.0840 H     1 <1>   0.0800 
 25 H       -2.7570    -0.3630    -0.6430 H     1 <1>   0.0800 
 26 H       -2.6690     1.3020    -0.0800 H     1 <1>   0.0800 
 27 H        1.2280     2.2550    -0.0850 H     1 <1>   0.1500 
 28 H        2.0580    -1.0030    -2.6810 H     1 <1>   0.1500 
 29 H       -0.9050    -0.5250     2.7420 H     1 <1>   0.0800 
 30 H       -1.6430    -2.0130     2.1830 H     1 <1>   0.0800 
 31 H       -3.5210    -0.7950     1.4930 H     1 <1>   0.0800 
 32 H       -2.7660     0.6430     2.1510 H     1 <1>   0.0800 
 33 H        4.4710    -0.6220    -2.3910 H     1 <1>   0.1500 
 34 H        2.9510     3.2970     1.1500 H     1 <1>   0.0800 
 35 H        4.0840     3.8240    -0.0680 H     1 <1>   0.0800 
 36 H        4.5650     2.6450     1.1330 H     1 <1>   0.0800 
 37 H        5.3070     2.8680    -2.1720 H     1 <1>   0.0800 
 38 H        6.7270     1.8890    -2.4740 H     1 <1>   0.0800 
 39 H        7.1050     1.7950     0.6440 H     1 <1>   0.3700 
 40 H        7.5890     3.7470     2.2030 H     1 <1>   0.0800 
 41 H        8.5540     4.4060     0.9000 H     1 <1>   0.0800 
 42 H        9.0180     1.7190     2.2420 H     1 <1>   0.0800 
 43 H        9.9800     3.1560     2.4740 H     1 <1>   0.0800 
 44 H        9.9710     2.3720     0.9160 H     1 <1>   0.0800 
@<TRIPOS>BOND
  1   1   2  2   
  2   1   3  2   
  3   1   4  am  
  4   1   5  1   
  5   4   6  1   
  6   4   7  1   
  7   5   8  ar  
  8   5   9  ar  
  9   6  10  1   
 10   6  23  1   
 11   6  24  1   
 12   7  11  1   
 13   7  25  1   
 14   7  26  1   
 15   8  12  ar  
 16   8  27  1   
 17   9  13  ar  
 18   9  28  1   
 19  10  11  1   
 20  10  29  1   
 21  10  30  1   
 22  11  31  1   
 23  11  32  1   
 24  12  14  ar  
 25  12  15  1   
 26  13  14  ar  
 27  13  33  1   
 28  14  16  1   
 29  15  34  1   
 30  15  35  1   
 31  15  36  1   
 32  16  17  1   
 33  17  18  1   
 34  17  37  1   
 35  17  38  1   
 36  18  19  2   
 37  18  20  am  
 38  20  21  1   
 39  20  39  1   
 40  21  22  1   
 41  21  40  1   
 42  21  41  1   
 43  22  42  1   
 44  22  43  1   
 45  22  44  1   
@<TRIPOS>SUBSTRUCTURE
  1 ****  12 GROUP 4 **** **** 0

# MOE 2024.06 (io_trps.svl 2023.06)
