@<TRIPOS>MOLECULE
2-Adamantan-1-yl-N-pyridin-3-yl-acetamide
42 45 1 0 0 
SMALL
USER_CHARGES


@<TRIPOS>ATOM
  1 O        0.3810    -0.0680     1.3330 O.2   1 <1>  -0.5700 
  2 C        0.5620     1.0860     1.0400 C.2   1 <1>   0.5690 
  3 N        1.6070     1.3980     0.2250 N.am  1 <1>  -0.5470 
  4 C       -0.3770     2.1440     1.6030 C.3   1 <1>  -0.0990 
  5 C        2.0810     2.6360    -0.2320 C.ar  1 <1>   0.1170 
  6 C       -1.6330     2.4390     0.7500 C.3   1 <1>   0.0000 
  7 C        2.5040     3.6450     0.6340 C.ar  1 <1>   0.1600 
  8 C        2.1500     2.8810    -1.5910 C.ar  1 <1>  -0.1500 
  9 C       -2.4780     3.5190     1.4690 C.3   1 <1>  -0.1600 
 10 C       -2.5070     1.1740     0.5790 C.3   1 <1>  -0.1600 
 11 C       -1.2630     2.9710    -0.6540 C.3   1 <1>  -0.1600 
 12 N        2.9470     4.8370     0.2670 N.ar  1 <1>  -0.6200 
 13 C        2.6130     4.1150    -1.9940 C.ar  1 <1>  -0.1500 
 14 C       -3.7500     3.8500     0.6670 C.3   1 <1>  -0.0800 
 15 C       -3.7790     1.4930    -0.2300 C.3   1 <1>  -0.0800 
 16 C       -2.5280     3.3000    -1.4680 C.3   1 <1>  -0.0800 
 17 C        2.9900     5.0450    -1.0400 C.ar  1 <1>   0.1600 
 18 C       -4.5930     2.5720     0.5080 C.3   1 <1>  -0.1600 
 19 C       -3.3470     4.3710    -0.7250 C.3   1 <1>  -0.1600 
 20 C       -3.3770     2.0240    -1.6180 C.3   1 <1>  -0.1600 
 21 H        2.0720     0.5660    -0.1400 H     1 <1>   0.3700 
 22 H        0.1610     3.0570     1.7620 H     1 <1>   0.0800 
 23 H       -0.6940     1.8030     2.5720 H     1 <1>   0.0800 
 24 H        2.4760     3.4460     1.6900 H     1 <1>   0.1500 
 25 H        1.8450     2.1370    -2.3050 H     1 <1>   0.1500 
 26 H       -1.8970     4.4150     1.5950 H     1 <1>   0.0800 
 27 H       -2.7590     3.1720     2.4480 H     1 <1>   0.0800 
 28 H       -2.7830     0.7850     1.5430 H     1 <1>   0.0800 
 29 H       -1.9540     0.4050     0.0680 H     1 <1>   0.0800 
 30 H       -0.6950     2.2330    -1.1900 H     1 <1>   0.0800 
 31 H       -0.6550     3.8550    -0.5640 H     1 <1>   0.0800 
 32 H        2.6810     4.3600    -3.0390 H     1 <1>   0.1500 
 33 H       -4.3220     4.6010     1.1840 H     1 <1>   0.0800 
 34 H       -4.3720     0.6010    -0.3400 H     1 <1>   0.0800 
 35 H       -2.2490     3.6680    -2.4410 H     1 <1>   0.0800 
 36 H        3.3470     6.0080    -1.3670 H     1 <1>   0.1500 
 37 H       -5.4900     2.7930    -0.0440 H     1 <1>   0.0800 
 38 H       -4.8870     2.2060     1.4770 H     1 <1>   0.0800 
 39 H       -2.7650     5.2700    -0.6230 H     1 <1>   0.0800 
 40 H       -4.2280     4.6140    -1.2920 H     1 <1>   0.0800 
 41 H       -4.2590     2.2390    -2.1950 H     1 <1>   0.0800 
 42 H       -2.8160     1.2730    -2.1460 H     1 <1>   0.0800 
@<TRIPOS>BOND
  1   1   2  2   
  2   2   3  am  
  3   2   4  1   
  4   3   5  1   
  5   3  21  1   
  6   4   6  1   
  7   4  22  1   
  8   4  23  1   
  9   5   7  ar  
 10   5   8  ar  
 11   6   9  1   
 12   6  10  1   
 13   6  11  1   
 14   7  12  ar  
 15   7  24  1   
 16   8  13  ar  
 17   8  25  1   
 18   9  14  1   
 19   9  26  1   
 20   9  27  1   
 21  10  15  1   
 22  10  28  1   
 23  10  29  1   
 24  11  16  1   
 25  11  30  1   
 26  11  31  1   
 27  12  17  ar  
 28  13  17  ar  
 29  13  32  1   
 30  14  18  1   
 31  14  19  1   
 32  14  33  1   
 33  15  18  1   
 34  15  20  1   
 35  15  34  1   
 36  16  19  1   
 37  16  20  1   
 38  16  35  1   
 39  17  36  1   
 40  18  37  1   
 41  18  38  1   
 42  19  39  1   
 43  19  40  1   
 44  20  41  1   
 45  20  42  1   
@<TRIPOS>SUBSTRUCTURE
  1 ****  11 GROUP 4 **** **** 0

# MOE 2024.06 (io_trps.svl 2023.06)
