@<TRIPOS>MOLECULE
4-(2,5-Dioxo-imidazolidin-1-yl)-butyric acid
22 22 1 0 0 
SMALL
USER_CHARGES


@<TRIPOS>ATOM
  1 O        1.3600    -0.1070    -2.3380 O.2   1 <1>  -0.5700 
  2 C        1.8960    -0.3480    -1.2790 C.2   1 <1>   0.6900 
  3 N        2.5100     0.5650    -0.4670 N.am  1 <1>  -0.4200 
  4 N        2.0150    -1.5960    -0.7820 N.am  1 <1>  -0.7300 
  5 C        3.1260    -0.0810     0.5650 C.2   1 <1>   0.5690 
  6 C        2.5040     2.0270    -0.6810 C.3   1 <1>   0.1400 
  7 C        2.8430    -1.5720     0.4470 C.3   1 <1>   0.2010 
  8 O        3.8130     0.4110     1.4270 O.2   1 <1>  -0.5700 
  9 C        1.2900     2.6590     0.0020 C.3   1 <1>  -0.1600 
 10 C        1.2820     4.1860    -0.1860 C.3   1 <1>  -0.2660 
 11 C        0.0980     4.8420     0.4850 C.2   1 <1>   0.9060 
 12 O        0.1420     5.0280     1.7040 O.co2 1 <1>  -0.9000 
 13 O       -0.8660     5.1710    -0.2110 O.co2 1 <1>  -0.9000 
 14 H        1.7780    -2.4270    -1.3250 H     1 <1>   0.3700 
 15 H        2.4760     2.2320    -1.7380 H     1 <1>   0.0800 
 16 H        3.4080     2.4480    -0.2750 H     1 <1>   0.0800 
 17 H        3.7560    -2.1240     0.3150 H     1 <1>   0.0800 
 18 H        2.2880    -1.9240     1.2980 H     1 <1>   0.0800 
 19 H        1.3090     2.4430     1.0570 H     1 <1>   0.0800 
 20 H        0.3830     2.2540    -0.4160 H     1 <1>   0.0800 
 21 H        1.2460     4.4330    -1.2300 H     1 <1>   0.0800 
 22 H        2.1690     4.6160     0.2380 H     1 <1>   0.0800 
@<TRIPOS>BOND
  1   1   2  2   
  2   2   3  am  
  3   2   4  am  
  4   3   5  am  
  5   3   6  1   
  6   4   7  1   
  7   4  14  1   
  8   5   7  1   
  9   5   8  2   
 10   6   9  1   
 11   6  15  1   
 12   6  16  1   
 13   7  17  1   
 14   7  18  1   
 15   9  10  1   
 16   9  19  1   
 17   9  20  1   
 18  10  11  1   
 19  10  21  1   
 20  10  22  1   
 21  11  12  ar  
 22  11  13  ar  
@<TRIPOS>SUBSTRUCTURE
  1 ****   6 GROUP 4 **** **** 0

# MOE 2024.06 (io_trps.svl 2023.06)
