@<TRIPOS>MOLECULE
3-Allyl-8-(2,4-dimethoxy-phenyl)-1,6-dimethyl-5,6,7,8-tetrahydro-1H-1,3,4b,8,9-p
56 59 1 0 0 
SMALL
USER_CHARGES


@<TRIPOS>ATOM
  1 O        1.5090     0.3500     1.9090 O.2   1 <1>  -0.5740 
  2 C        2.3380     1.0880     1.4180 C.2   1 <1>   0.6870 
  3 N        2.0540     2.4330     1.2260 N.am  1 <1>  -0.4250 
  4 N        3.5840     0.5850     1.0640 N.am  1 <1>  -0.4410 
  5 C        3.0240     3.3240     0.7970 C.2   1 <1>   0.7000 
  6 C        0.6550     2.9130     1.3800 C.3   1 <1>   0.2730 
  7 C        4.5330     1.4720     0.5940 C.2   1 <1>   0.4210 
  8 C        3.8960    -0.8670     1.2140 C.3   1 <1>   0.0530 
  9 O        2.8000     4.5220     0.7300 O.2   1 <1>  -0.5740 
 10 C        4.3080     2.7960     0.4530 C.2   1 <1>   0.2710 
 11 C       -0.0890     2.8730     0.0500 C.2   1 <1>  -0.2940 
 12 N        5.8150     1.2090     0.2200 N.pl3 1 <1>  -0.7030 
 13 N        5.5060     3.3460    -0.0240 N.pl3 1 <1>  -0.7670 
 14 C        0.3210     2.3730    -1.1230 C.2   1 <1>  -0.3060 
 15 C        6.3850     2.3560    -0.1390 C.cat 1 <1>   1.0690 
 16 C        5.7880     4.7670    -0.3150 C.3   1 <1>   0.3490 
 17 N        7.6490     2.5390    -0.5670 N.pl3 1 <1>  -0.5790 
 18 C        7.0210     4.8660    -1.2290 C.3   1 <1>  -0.0870 
 19 C        8.5790     1.4890    -0.7260 C.ar  1 <1>   0.3050 
 20 C        8.1490     3.9320    -0.7520 C.3   1 <1>   0.1610 
 21 C        7.5230     6.3150    -1.3180 C.3   1 <1>  -0.2460 
 22 C        8.9560     0.6590     0.3410 C.ar  1 <1>   0.0760 
 23 C        9.1350     1.2660    -1.9780 C.ar  1 <1>  -0.1570 
 24 O        8.3840     0.8860     1.5610 O.3   1 <1>  -0.3680 
 25 C        9.8770    -0.3630     0.1400 C.ar  1 <1>  -0.1570 
 26 C       10.0500     0.2480    -2.1730 C.ar  1 <1>  -0.1570 
 27 C        9.0050     0.4300     2.7470 C.3   1 <1>   0.0330 
 28 C       10.4270    -0.5680    -1.1220 C.ar  1 <1>   0.0760 
 29 O       11.3310    -1.5390    -1.4060 O.3   1 <1>  -0.3680 
 30 C       11.8450    -2.3870    -0.4020 C.3   1 <1>   0.0330 
 31 H        0.6590     3.9220     1.7540 H     1 <1>   0.0730 
 32 H        0.1300     2.3100     2.1020 H     1 <1>   0.0730 
 33 H        2.9910    -1.4510     1.2110 H     1 <1>   0.0730 
 34 H        4.4080    -1.0330     2.1470 H     1 <1>   0.0730 
 35 H        4.5130    -1.2040     0.4010 H     1 <1>   0.0730 
 36 H       -1.0640     3.3190     0.1480 H     1 <1>   0.1430 
 37 H        6.3400     0.3420     0.3110 H     1 <1>   0.4450 
 38 H       -0.2850     2.3930    -2.0140 H     1 <1>   0.1430 
 39 H        1.2690     1.9040    -1.3080 H     1 <1>   0.1430 
 40 H        5.9690     5.2840     0.6140 H     1 <1>   0.0730 
 41 H        4.9360     5.2220    -0.7950 H     1 <1>   0.0730 
 42 H        6.7300     4.5640    -2.2210 H     1 <1>   0.0730 
 43 H        8.9510     3.9430    -1.4720 H     1 <1>   0.0730 
 44 H        8.5440     4.2830     0.1880 H     1 <1>   0.0730 
 45 H        7.8370     6.6770    -0.3530 H     1 <1>   0.0730 
 46 H        6.7450     6.9620    -1.6870 H     1 <1>   0.0730 
 47 H        8.3590     6.3830    -1.9940 H     1 <1>   0.0730 
 48 H        8.8550     1.8850    -2.8110 H     1 <1>   0.1430 
 49 H       10.1650    -1.0020     0.9500 H     1 <1>   0.1430 
 50 H       10.4820     0.0770    -3.1450 H     1 <1>   0.1430 
 51 H        8.4950     0.8690     3.5860 H     1 <1>   0.0730 
 52 H       10.0360     0.7410     2.7470 H     1 <1>   0.0730 
 53 H        8.9290    -0.6420     2.7980 H     1 <1>   0.0730 
 54 H       12.5600    -3.0480    -0.8580 H     1 <1>   0.0730 
 55 H       11.0380    -2.9590     0.0200 H     1 <1>   0.0730 
 56 H       12.3300    -1.7880     0.3480 H     1 <1>   0.0730 
@<TRIPOS>BOND
  1   1   2  2   
  2   2   3  am  
  3   2   4  am  
  4   3   5  am  
  5   3   6  1   
  6   4   7  1   
  7   4   8  1   
  8   5   9  2   
  9   5  10  1   
 10   6  11  1   
 11   6  31  1   
 12   6  32  1   
 13   7  10  2   
 14   7  12  1   
 15   8  33  1   
 16   8  34  1   
 17   8  35  1   
 18  10  13  1   
 19  11  14  2   
 20  11  36  1   
 21  12  15  ar  
 22  12  37  1   
 23  13  15  ar  
 24  13  16  1   
 25  14  38  1   
 26  14  39  1   
 27  15  17  ar  
 28  16  18  1   
 29  16  40  1   
 30  16  41  1   
 31  17  19  1   
 32  17  20  1   
 33  18  20  1   
 34  18  21  1   
 35  18  42  1   
 36  19  22  ar  
 37  19  23  ar  
 38  20  43  1   
 39  20  44  1   
 40  21  45  1   
 41  21  46  1   
 42  21  47  1   
 43  22  24  1   
 44  22  25  ar  
 45  23  26  ar  
 46  23  48  1   
 47  24  27  1   
 48  25  28  ar  
 49  25  49  1   
 50  26  28  ar  
 51  26  50  1   
 52  27  51  1   
 53  27  52  1   
 54  27  53  1   
 55  28  29  1   
 56  29  30  1   
 57  30  54  1   
 58  30  55  1   
 59  30  56  1   
@<TRIPOS>SUBSTRUCTURE
  1 ****  12 GROUP 4 **** **** 0

# MOE 2024.06 (io_trps.svl 2023.06)
