@<TRIPOS>MOLECULE
2-Azepan-1-yl-2-(4-fluoro-phenyl)-ethylamine
40 41 1 0 0 
SMALL
USER_CHARGES


@<TRIPOS>ATOM
  1 F       -0.3910     0.8470     0.8380 F     1 <1>  -0.1900 
  2 C       -0.2540     2.1330     0.6760 C.ar  1 <1>   0.1900 
  3 C        0.0030     2.9220     1.7770 C.ar  1 <1>  -0.1500 
  4 C       -0.3700     2.6610    -0.5940 C.ar  1 <1>  -0.1500 
  5 C        0.1510     4.2870     1.5990 C.ar  1 <1>  -0.1500 
  6 C       -0.2210     4.0270    -0.7650 C.ar  1 <1>  -0.1500 
  7 C        0.0440     4.8510     0.3300 C.ar  1 <1>  -0.1430 
  8 C        0.2250     6.3590     0.2000 C.3   1 <1>   0.5670 
  9 N       -1.1380     6.9860     0.1720 N.4   1 <1>  -0.9590 
 10 C        1.1850     6.7100    -0.9880 C.3   1 <1>   0.3430 
 11 C       -1.9620     6.7890    -1.0540 C.3   1 <1>   0.3430 
 12 C       -1.1740     8.4180     0.5920 C.3   1 <1>   0.3430 
 13 N        2.4720     5.9090    -1.0320 N.4   1 <1>  -0.8530 
 14 C       -3.3150     6.1960    -0.6650 C.3   1 <1>  -0.1600 
 15 C       -2.4470     8.7050     1.3920 C.3   1 <1>  -0.1600 
 16 C       -3.9940     6.8190     0.5690 C.3   1 <1>  -0.1600 
 17 C       -3.7810     8.3350     0.7140 C.3   1 <1>  -0.1600 
 18 H        0.0820     2.4670     2.7510 H     1 <1>   0.1500 
 19 H       -0.5790     2.0030    -1.4220 H     1 <1>   0.1500 
 20 H        0.3480     4.8890     2.4730 H     1 <1>   0.1500 
 21 H       -0.3250     4.4090    -1.7670 H     1 <1>   0.1500 
 22 H        0.7100     6.6940     1.1020 H     1 <1>   0.0800 
 23 H       -1.6770     6.4870     0.9000 H     1 <1>   0.4500 
 24 H        1.4250     7.7600    -0.9400 H     1 <1>   0.0800 
 25 H        0.6510     6.5370    -1.9070 H     1 <1>   0.0800 
 26 H       -1.4780     6.1290    -1.7530 H     1 <1>   0.0800 
 27 H       -2.1240     7.7370    -1.5440 H     1 <1>   0.0800 
 28 H       -1.1400     9.0620    -0.2730 H     1 <1>   0.0800 
 29 H       -0.3260     8.6480     1.2170 H     1 <1>   0.0800 
 30 H        3.1150     6.1220    -0.2560 H     1 <1>   0.4500 
 31 H        3.0010     6.0890    -1.8990 H     1 <1>   0.4500 
 32 H        2.2960     4.8910    -1.0040 H     1 <1>   0.4500 
 33 H       -3.2120     5.1350    -0.5110 H     1 <1>   0.0800 
 34 H       -3.9710     6.3160    -1.5110 H     1 <1>   0.0800 
 35 H       -2.4660     9.7630     1.5970 H     1 <1>   0.0800 
 36 H       -2.3850     8.2170     2.3500 H     1 <1>   0.0800 
 37 H       -3.6720     6.3200     1.4670 H     1 <1>   0.0800 
 38 H       -5.0530     6.6320     0.4870 H     1 <1>   0.0800 
 39 H       -3.8810     8.8280    -0.2390 H     1 <1>   0.0800 
 40 H       -4.5740     8.7150     1.3390 H     1 <1>   0.0800 
@<TRIPOS>BOND
  1   1   2  1   
  2   2   3  ar  
  3   2   4  ar  
  4   3   5  ar  
  5   3  18  1   
  6   4   6  ar  
  7   4  19  1   
  8   5   7  ar  
  9   5  20  1   
 10   6   7  ar  
 11   6  21  1   
 12   7   8  1   
 13   8   9  1   
 14   8  10  1   
 15   8  22  1   
 16   9  11  1   
 17   9  12  1   
 18   9  23  1   
 19  10  13  1   
 20  10  24  1   
 21  10  25  1   
 22  11  14  1   
 23  11  26  1   
 24  11  27  1   
 25  12  15  1   
 26  12  28  1   
 27  12  29  1   
 28  13  30  1   
 29  13  31  1   
 30  13  32  1   
 31  14  16  1   
 32  14  33  1   
 33  14  34  1   
 34  15  17  1   
 35  15  35  1   
 36  15  36  1   
 37  16  17  1   
 38  16  37  1   
 39  16  38  1   
 40  17  39  1   
 41  17  40  1   
@<TRIPOS>SUBSTRUCTURE
  1 ****   7 GROUP 4 **** **** 0

# MOE 2024.06 (io_trps.svl 2023.06)
