@<TRIPOS>MOLECULE
4-(4-Fluoro-phenyl)-2,7-dimethyl-5-oxo-1,4,5,6,7,8-hexahydro-quinoline-3,6-dicar
60 63 1 0 0 
SMALL
USER_CHARGES


@<TRIPOS>ATOM
  1 F       -1.1020    -1.0320     1.6570 F     1 <1>  -0.1900 
  2 C       -0.7700    -2.2040     1.1850 C.ar  1 <1>   0.1900 
  3 C       -0.4520    -2.3170    -0.1540 C.ar  1 <1>  -0.1500 
  4 C       -0.7500    -3.2870     2.0420 C.ar  1 <1>  -0.1500 
  5 C       -0.1030    -3.5620    -0.6490 C.ar  1 <1>  -0.1500 
  6 C       -0.4000    -4.5260     1.5340 C.ar  1 <1>  -0.1500 
  7 C       -0.0730    -4.6720     0.1890 C.ar  1 <1>  -0.1430 
  8 C        0.3020    -6.0500    -0.3690 C.3   1 <1>   0.3400 
  9 C       -0.9750    -6.8860    -0.4170 C.2   1 <1>  -0.1240 
 10 C        1.4250    -6.6680     0.4830 C.2   1 <1>  -0.1240 
 11 C       -1.9800    -6.4650    -1.3320 C.2   1 <1>   0.4950 
 12 C       -1.1090    -7.9610     0.3930 C.2   1 <1>  -0.0380 
 13 C        1.1570    -7.7900     1.2130 C.2   1 <1>  -0.0380 
 14 C        2.6600    -5.9350     0.4190 C.2   1 <1>   0.7060 
 15 O       -1.7560    -5.7370    -2.2720 O.2   1 <1>  -0.5700 
 16 C       -3.3890    -7.0070    -1.1680 C.3   1 <1>   0.0420 
 17 N       -0.0890    -8.3800     1.2080 N.pl3 1 <1>  -0.6000 
 18 C       -2.3970    -8.7640     0.4140 C.3   1 <1>  -0.0220 
 19 C        2.1510    -8.5280     2.0990 C.3   1 <1>  -0.1020 
 20 O        3.5640    -6.0490     1.2240 O.2   1 <1>  -0.5700 
 21 O        2.8270    -5.0700    -0.5870 O.3   1 <1>  -0.4300 
 22 C       -4.3330    -5.8240    -1.2060 C.2   1 <1>   0.6590 
 23 C       -3.5930    -7.8390     0.1290 C.3   1 <1>  -0.0800 
 24 C        3.9880    -4.2830    -0.7440 C.3   1 <1>   0.2000 
 25 O       -5.2580    -5.7780    -1.9760 O.2   1 <1>  -0.5700 
 26 O       -4.1010    -4.8580    -0.3220 O.3   1 <1>  -0.4300 
 27 C       -4.9020    -8.6440     0.0850 C.3   1 <1>  -0.2400 
 28 C        3.6230    -3.1050    -1.6380 C.3   1 <1>  -0.1600 
 29 C        4.9980    -5.0630    -1.5790 C.3   1 <1>  -0.1600 
 30 C       -4.8750    -3.6790    -0.2850 C.3   1 <1>   0.0400 
 31 C        3.6320    -3.6630    -3.0650 C.3   1 <1>  -0.1600 
 32 C        4.5350    -4.9050    -3.0320 C.3   1 <1>  -0.1600 
 33 H       -0.4810    -1.4530    -0.7920 H     1 <1>   0.1500 
 34 H       -1.0040    -3.1610     3.0780 H     1 <1>   0.1500 
 35 H        0.1370    -3.6670    -1.6940 H     1 <1>   0.1500 
 36 H       -0.3850    -5.3820     2.1890 H     1 <1>   0.1500 
 37 H        0.6570    -5.9550    -1.3810 H     1 <1>   0.0800 
 38 H       -3.5900    -7.6260    -2.0220 H     1 <1>   0.0800 
 39 H       -0.2350    -9.2040     1.8040 H     1 <1>   0.4000 
 40 H       -2.5290    -9.2160     1.3820 H     1 <1>   0.0800 
 41 H       -2.3370    -9.5480    -0.3210 H     1 <1>   0.0800 
 42 H        2.0420    -8.2020     3.1170 H     1 <1>   0.0800 
 43 H        3.1650    -8.3640     1.7900 H     1 <1>   0.0800 
 44 H        1.9780    -9.5880     2.0530 H     1 <1>   0.0800 
 45 H       -3.6560    -7.1510     0.9580 H     1 <1>   0.0800 
 46 H        4.3580    -3.9750     0.2200 H     1 <1>   0.0800 
 47 H       -4.8890    -9.3540    -0.7240 H     1 <1>   0.0800 
 48 H       -5.7460    -7.9890    -0.0520 H     1 <1>   0.0800 
 49 H       -5.0450    -9.1790     1.0070 H     1 <1>   0.0800 
 50 H        4.3890    -2.3560    -1.5480 H     1 <1>   0.0800 
 51 H        2.6780    -2.6690    -1.3660 H     1 <1>   0.0800 
 52 H        5.0720    -6.0920    -1.2730 H     1 <1>   0.0800 
 53 H        5.9630    -4.6010    -1.4660 H     1 <1>   0.0800 
 54 H       -4.4870    -3.0420     0.4900 H     1 <1>   0.0800 
 55 H       -5.8980    -3.9400    -0.0780 H     1 <1>   0.0800 
 56 H       -4.8010    -3.1870    -1.2390 H     1 <1>   0.0800 
 57 H        3.9900    -2.9300    -3.7660 H     1 <1>   0.0800 
 58 H        2.6340    -3.9550    -3.3440 H     1 <1>   0.0800 
 59 H        3.9660    -5.7700    -3.3290 H     1 <1>   0.0800 
 60 H        5.3770    -4.7990    -3.6940 H     1 <1>   0.0800 
@<TRIPOS>BOND
  1   1   2  1   
  2   2   3  ar  
  3   2   4  ar  
  4   3   5  ar  
  5   3  33  1   
  6   4   6  ar  
  7   4  34  1   
  8   5   7  ar  
  9   5  35  1   
 10   6   7  ar  
 11   6  36  1   
 12   7   8  1   
 13   8   9  1   
 14   8  10  1   
 15   8  37  1   
 16   9  11  1   
 17   9  12  2   
 18  10  13  2   
 19  10  14  1   
 20  11  15  2   
 21  11  16  1   
 22  12  17  1   
 23  12  18  1   
 24  13  17  1   
 25  13  19  1   
 26  14  20  2   
 27  14  21  1   
 28  16  22  1   
 29  16  23  1   
 30  16  38  1   
 31  17  39  1   
 32  18  23  1   
 33  18  40  1   
 34  18  41  1   
 35  19  42  1   
 36  19  43  1   
 37  19  44  1   
 38  21  24  1   
 39  22  25  2   
 40  22  26  1   
 41  23  27  1   
 42  23  45  1   
 43  24  28  1   
 44  24  29  1   
 45  24  46  1   
 46  26  30  1   
 47  27  47  1   
 48  27  48  1   
 49  27  49  1   
 50  28  31  1   
 51  28  50  1   
 52  28  51  1   
 53  29  32  1   
 54  29  52  1   
 55  29  53  1   
 56  30  54  1   
 57  30  55  1   
 58  30  56  1   
 59  31  32  1   
 60  31  57  1   
 61  31  58  1   
 62  32  59  1   
 63  32  60  1   
@<TRIPOS>SUBSTRUCTURE
  1 ****   8 GROUP 4 **** **** 0

# MOE 2024.06 (io_trps.svl 2023.06)
