@<TRIPOS>MOLECULE
4-(Naphthalene-2-sulfonyl)-piperazine-1-carboxylic acid diethylamide
51 53 1 0 0 
SMALL
USER_CHARGES


@<TRIPOS>ATOM
  1 S       -0.1760     0.7960     1.7950 S.o2  1 <1>   1.4470 
  2 O        0.0480     2.1510     2.2500 O.2   1 <1>  -0.6500 
  3 O       -0.3360    -0.2670     2.7630 O.2   1 <1>  -0.6500 
  4 N       -1.5850     0.8180     0.8530 N.am  1 <1>  -0.8490 
  5 C        1.1070     0.3530     0.5910 C.ar  1 <1>  -0.0090 
  6 C       -2.0070    -0.5340     0.4420 C.3   1 <1>   0.1960 
  7 C       -2.6930     1.4790     1.5670 C.3   1 <1>   0.1960 
  8 C        1.7980    -0.8310     0.6630 C.ar  1 <1>  -0.1500 
  9 C        1.4080     1.2260    -0.4690 C.ar  1 <1>  -0.1500 
 10 C       -3.2410    -0.4960    -0.4770 C.3   1 <1>   0.1400 
 11 C       -3.9460     1.5910     0.6830 C.3   1 <1>   0.1400 
 12 C        2.7800    -1.1930    -0.2800 C.ar  1 <1>   0.0000 
 13 C        2.3560     0.9090    -1.4020 C.ar  1 <1>  -0.1500 
 14 N       -4.3580     0.2550     0.1630 N.am  1 <1>  -0.6600 
 15 C        3.0650    -0.3050    -1.3370 C.ar  1 <1>   0.0000 
 16 C        3.4880    -2.4100    -0.2070 C.ar  1 <1>  -0.1500 
 17 C       -5.3990    -0.4210     0.7430 C.2   1 <1>   0.6900 
 18 C        4.0440    -0.6680    -2.2830 C.ar  1 <1>  -0.1500 
 19 C        4.4340    -2.7370    -1.1390 C.ar  1 <1>  -0.1500 
 20 O       -5.7100    -0.1530     1.8920 O.2   1 <1>  -0.5700 
 21 N       -6.0770    -1.3980     0.0500 N.am  1 <1>  -0.6600 
 22 C        4.7150    -1.8560    -2.1900 C.ar  1 <1>  -0.1500 
 23 C       -6.3640    -1.2410    -1.4020 C.3   1 <1>   0.1400 
 24 C       -6.9660    -2.3420     0.7800 C.3   1 <1>   0.1400 
 25 C       -5.9660    -2.4990    -2.1750 C.3   1 <1>  -0.2400 
 26 C       -6.1430    -3.5340     1.2620 C.3   1 <1>  -0.2400 
 27 H       -2.2420    -1.1280     1.3110 H     1 <1>   0.0800 
 28 H       -1.2030    -1.0210    -0.0840 H     1 <1>   0.0800 
 29 H       -2.3960     2.4710     1.8610 H     1 <1>   0.0800 
 30 H       -2.9390     0.9280     2.4610 H     1 <1>   0.0800 
 31 H        1.5940    -1.5190     1.4650 H     1 <1>   0.1500 
 32 H        0.8710     2.1590    -0.5290 H     1 <1>   0.1500 
 33 H       -3.5470    -1.5060    -0.6830 H     1 <1>   0.0800 
 34 H       -2.9840    -0.0250    -1.4080 H     1 <1>   0.0800 
 35 H       -3.7380     2.2440    -0.1460 H     1 <1>   0.0800 
 36 H       -4.7480     2.0290     1.2530 H     1 <1>   0.0800 
 37 H        2.5780     1.5890    -2.2060 H     1 <1>   0.1500 
 38 H        3.2720    -3.0830     0.6030 H     1 <1>   0.1500 
 39 H        4.2580     0.0130    -3.0880 H     1 <1>   0.1500 
 40 H        4.9720    -3.6680    -1.0790 H     1 <1>   0.1500 
 41 H        5.4620    -2.1290    -2.9150 H     1 <1>   0.1500 
 42 H       -5.8300    -0.3940    -1.7970 H     1 <1>   0.0800 
 43 H       -7.4160    -1.0490    -1.5340 H     1 <1>   0.0800 
 44 H       -7.7590    -2.6800     0.1360 H     1 <1>   0.0800 
 45 H       -7.4170    -1.8470     1.6230 H     1 <1>   0.0800 
 46 H       -4.9280    -2.7260    -2.0200 H     1 <1>   0.0800 
 47 H       -6.1270    -2.3390    -3.2260 H     1 <1>   0.0800 
 48 H       -6.5640    -3.3380    -1.8700 H     1 <1>   0.0800 
 49 H       -5.6870    -4.0390     0.4310 H     1 <1>   0.0800 
 50 H       -6.7810    -4.2270     1.7800 H     1 <1>   0.0800 
 51 H       -5.3800    -3.2000     1.9420 H     1 <1>   0.0800 
@<TRIPOS>BOND
  1   1   2  2   
  2   1   3  2   
  3   1   4  am  
  4   1   5  1   
  5   4   6  1   
  6   4   7  1   
  7   5   8  ar  
  8   5   9  ar  
  9   6  10  1   
 10   6  27  1   
 11   6  28  1   
 12   7  11  1   
 13   7  29  1   
 14   7  30  1   
 15   8  12  ar  
 16   8  31  1   
 17   9  13  ar  
 18   9  32  1   
 19  10  14  1   
 20  10  33  1   
 21  10  34  1   
 22  11  14  1   
 23  11  35  1   
 24  11  36  1   
 25  12  15  ar  
 26  12  16  ar  
 27  13  15  ar  
 28  13  37  1   
 29  14  17  am  
 30  15  18  ar  
 31  16  19  ar  
 32  16  38  1   
 33  17  20  2   
 34  17  21  am  
 35  18  22  ar  
 36  18  39  1   
 37  19  22  ar  
 38  19  40  1   
 39  21  23  1   
 40  21  24  1   
 41  22  41  1   
 42  23  25  1   
 43  23  42  1   
 44  23  43  1   
 45  24  26  1   
 46  24  44  1   
 47  24  45  1   
 48  25  46  1   
 49  25  47  1   
 50  25  48  1   
 51  26  49  1   
 52  26  50  1   
 53  26  51  1   
@<TRIPOS>SUBSTRUCTURE
  1 ****   6 GROUP 4 **** **** 0

# MOE 2024.06 (io_trps.svl 2023.06)
