@<TRIPOS>MOLECULE
N-Methyl-4-(3-p-tolyl-[1,2,4]oxadiazol-5-yl)-butyramide
36 37 1 0 0 
SMALL
USER_CHARGES


@<TRIPOS>ATOM
  1 O       -1.3030    -0.2580    -1.2140 O.2   1 <1>  -0.5700 
  2 C       -1.4360    -1.3300    -0.6800 C.2   1 <1>   0.5690 
  3 N       -0.6030    -2.3430    -1.0160 N.am  1 <1>  -0.7300 
  4 C       -2.5230    -1.5350     0.3660 C.3   1 <1>  -0.0990 
  5 C       -0.5350    -3.7290    -0.4860 C.3   1 <1>   0.0600 
  6 C       -3.5810    -0.4110     0.4050 C.3   1 <1>  -0.1600 
  7 C       -4.6090    -0.5740     1.5380 C.3   1 <1>   0.0200 
  8 C       -5.3830    -1.8780     1.4560 C.2   1 <1>   0.2980 
  9 O       -4.8750    -2.9490     2.0060 O.3   1 <1>  -0.0190 
 10 N       -6.5070    -2.0370     0.8910 N.2   1 <1>  -0.5650 
 11 N       -5.7470    -3.8740     1.7620 N.2   1 <1>  -0.4100 
 12 C       -6.7160    -3.3410     1.1040 C.2   1 <1>   0.4620 
 13 C       -7.9030    -4.0340     0.6300 C.ar  1 <1>   0.0540 
 14 C       -8.1090    -5.3880     0.9010 C.ar  1 <1>  -0.1500 
 15 C       -8.8880    -3.3820    -0.1140 C.ar  1 <1>  -0.1500 
 16 C       -9.2340    -6.0550     0.4530 C.ar  1 <1>  -0.1500 
 17 C      -10.0150    -4.0450    -0.5650 C.ar  1 <1>  -0.1500 
 18 C      -10.1950    -5.3880    -0.2860 C.ar  1 <1>  -0.1430 
 19 C      -11.4320    -6.1170    -0.7780 C.3   1 <1>  -0.0970 
 20 H        0.0790    -2.1050    -1.7410 H     1 <1>   0.3700 
 21 H       -2.0460    -1.6130     1.3260 H     1 <1>   0.0800 
 22 H       -3.0120    -2.4670     0.1520 H     1 <1>   0.0800 
 23 H       -1.1540    -3.8410     0.3870 H     1 <1>   0.0800 
 24 H        0.4810    -3.9630    -0.2190 H     1 <1>   0.0800 
 25 H       -0.8670    -4.4210    -1.2410 H     1 <1>   0.0800 
 26 H       -4.0960    -0.3850    -0.5400 H     1 <1>   0.0800 
 27 H       -3.0840     0.5360     0.5290 H     1 <1>   0.0800 
 28 H       -5.3110     0.2390     1.4850 H     1 <1>   0.0800 
 29 H       -4.1170    -0.5190     2.4920 H     1 <1>   0.0800 
 30 H       -7.3750    -5.9280     1.4740 H     1 <1>   0.1500 
 31 H       -8.7690    -2.3380    -0.3450 H     1 <1>   0.1500 
 32 H       -9.3590    -7.0990     0.6830 H     1 <1>   0.1500 
 33 H      -10.7530    -3.5080    -1.1360 H     1 <1>   0.1500 
 34 H      -11.2140    -7.1560    -0.9490 H     1 <1>   0.0800 
 35 H      -11.7790    -5.6880    -1.7010 H     1 <1>   0.0800 
 36 H      -12.2140    -6.0420    -0.0440 H     1 <1>   0.0800 
@<TRIPOS>BOND
  1   1   2  2   
  2   2   3  am  
  3   2   4  1   
  4   3   5  1   
  5   3  20  1   
  6   4   6  1   
  7   4  21  1   
  8   4  22  1   
  9   5  23  1   
 10   5  24  1   
 11   5  25  1   
 12   6   7  1   
 13   6  26  1   
 14   6  27  1   
 15   7   8  1   
 16   7  28  1   
 17   7  29  1   
 18   8   9  1   
 19   8  10  2   
 20   9  11  1   
 21  10  12  1   
 22  11  12  2   
 23  12  13  1   
 24  13  14  ar  
 25  13  15  ar  
 26  14  16  ar  
 27  14  30  1   
 28  15  17  ar  
 29  15  31  1   
 30  16  18  ar  
 31  16  32  1   
 32  17  18  ar  
 33  17  33  1   
 34  18  19  1   
 35  19  34  1   
 36  19  35  1   
 37  19  36  1   
@<TRIPOS>SUBSTRUCTURE
  1 ****  12 GROUP 4 **** **** 0

# MOE 2024.06 (io_trps.svl 2023.06)
