@<TRIPOS>MOLECULE
1-(2,5-Dimethyl-phenyl)-5-oxo-pyrrolidine-3-carboxylic acid (3-methoxy-phenyl)-a
47 49 1 0 0 
SMALL
USER_CHARGES


@<TRIPOS>ATOM
  1 O        0.7850    -0.2390     1.4430 O.2   1 <1>  -0.5700 
  2 C        1.7160    -0.3850     0.6910 C.2   1 <1>   0.5690 
  3 N        2.0450    -1.5050    -0.0100 N.am  1 <1>  -0.4770 
  4 C        2.6830     0.7300     0.4130 C.3   1 <1>  -0.0990 
  5 C        1.4080    -2.7570    -0.0050 C.ar  1 <1>   0.1170 
  6 C        3.2640    -1.2910    -0.8100 C.3   1 <1>   0.1400 
  7 C        3.4370     0.2360    -0.8340 C.3   1 <1>  -0.0190 
  8 C        0.1200    -2.9400    -0.5140 C.ar  1 <1>  -0.1440 
  9 C        2.0910    -3.8540     0.5080 C.ar  1 <1>  -0.1500 
 10 C        4.8890     0.6880    -0.9080 C.2   1 <1>   0.5690 
 11 C       -0.4490    -4.2030    -0.4960 C.ar  1 <1>  -0.1500 
 12 C       -0.6830    -1.7810    -1.0900 C.3   1 <1>  -0.0970 
 13 C        1.5230    -5.1160     0.5200 C.ar  1 <1>  -0.1440 
 14 O        5.7370    -0.1230    -1.1830 O.2   1 <1>  -0.5700 
 15 N        5.1540     2.0080    -0.6610 N.am  1 <1>  -0.5470 
 16 C        0.2460    -5.2850     0.0150 C.ar  1 <1>  -0.1500 
 17 C        2.2790    -6.3050     1.0860 C.3   1 <1>  -0.0970 
 18 C        6.3620     2.7230    -0.6320 C.ar  1 <1>   0.1170 
 19 C        6.3930     3.9320     0.0490 C.ar  1 <1>  -0.1500 
 20 C        7.5260     2.2890    -1.2600 C.ar  1 <1>  -0.1500 
 21 C        7.5460     4.6940     0.1130 C.ar  1 <1>   0.0820 
 22 C        8.6860     3.0410    -1.2020 C.ar  1 <1>  -0.1500 
 23 O        7.4670     5.8580     0.8050 O.3   1 <1>  -0.3630 
 24 C        8.7020     4.2430    -0.5170 C.ar  1 <1>  -0.1500 
 25 C        8.5890     6.7000     0.9470 C.3   1 <1>   0.0400 
 26 H        3.3370     0.8270     1.2610 H     1 <1>   0.0800 
 27 H        2.1600     1.6520     0.2360 H     1 <1>   0.0800 
 28 H        3.1480    -1.6930    -1.8020 H     1 <1>   0.0800 
 29 H        4.0910    -1.7730    -0.3180 H     1 <1>   0.0800 
 30 H        2.9340     0.6010    -1.7120 H     1 <1>   0.0800 
 31 H        3.0780    -3.7100     0.9070 H     1 <1>   0.1500 
 32 H       -1.4420    -4.3540    -0.8800 H     1 <1>   0.1500 
 33 H       -0.0690    -1.1870    -1.7420 H     1 <1>   0.0800 
 34 H       -1.0470    -1.1610    -0.2910 H     1 <1>   0.0800 
 35 H       -1.5250    -2.1390    -1.6540 H     1 <1>   0.0800 
 36 H        4.3450     2.5700    -0.4040 H     1 <1>   0.3700 
 37 H       -0.2140    -6.2570     0.0210 H     1 <1>   0.1500 
 38 H        3.3260    -6.0810     1.1820 H     1 <1>   0.0800 
 39 H        2.1710    -7.1540     0.4360 H     1 <1>   0.0800 
 40 H        1.8870    -6.5550     2.0550 H     1 <1>   0.0800 
 41 H        5.5150     4.2990     0.5440 H     1 <1>   0.1500 
 42 H        7.5350     1.3610    -1.8020 H     1 <1>   0.1500 
 43 H        9.5770     2.6880    -1.6920 H     1 <1>   0.1500 
 44 H        9.6150     4.8080    -0.4870 H     1 <1>   0.1500 
 45 H        8.2950     7.5520     1.5340 H     1 <1>   0.0800 
 46 H        8.9110     7.0220    -0.0270 H     1 <1>   0.0800 
 47 H        9.3700     6.1600     1.4530 H     1 <1>   0.0800 
@<TRIPOS>BOND
  1   1   2  2   
  2   2   3  am  
  3   2   4  1   
  4   3   5  1   
  5   3   6  1   
  6   4   7  1   
  7   4  26  1   
  8   4  27  1   
  9   5   8  ar  
 10   5   9  ar  
 11   6   7  1   
 12   6  28  1   
 13   6  29  1   
 14   7  10  1   
 15   7  30  1   
 16   8  11  ar  
 17   8  12  1   
 18   9  13  ar  
 19   9  31  1   
 20  10  14  2   
 21  10  15  am  
 22  11  16  ar  
 23  11  32  1   
 24  12  33  1   
 25  12  34  1   
 26  12  35  1   
 27  13  16  ar  
 28  13  17  1   
 29  15  18  1   
 30  15  36  1   
 31  16  37  1   
 32  17  38  1   
 33  17  39  1   
 34  17  40  1   
 35  18  19  ar  
 36  18  20  ar  
 37  19  21  ar  
 38  19  41  1   
 39  20  22  ar  
 40  20  42  1   
 41  21  23  1   
 42  21  24  ar  
 43  22  24  ar  
 44  22  43  1   
 45  23  25  1   
 46  24  44  1   
 47  25  45  1   
 48  25  46  1   
 49  25  47  1   
@<TRIPOS>SUBSTRUCTURE
  1 ****   7 GROUP 4 **** **** 0

# MOE 2024.06 (io_trps.svl 2023.06)
