@<TRIPOS>MOLECULE
2-[2-(4-Pyridin-2-yl-piperazin-1-yl)-acetylamino]-benzoic acid methyl ester
48 50 1 0 0 
SMALL
USER_CHARGES


@<TRIPOS>ATOM
  1 O       -3.4810    -2.5040    -1.5760 O.2   1 <1>  -0.5700 
  2 C       -2.3050    -2.3930    -1.8630 C.2   1 <1>   0.6340 
  3 O       -1.9840    -1.6370    -2.9200 O.3   1 <1>  -0.4300 
  4 C       -1.2270    -3.0270    -1.1340 C.ar  1 <1>   0.0860 
  5 C       -2.9660    -0.9560    -3.6790 C.3   1 <1>   0.0400 
  6 C       -1.3290    -3.3660     0.2320 C.ar  1 <1>   0.1170 
  7 C       -0.0300    -3.3210    -1.7990 C.ar  1 <1>  -0.1500 
  8 N       -2.4960    -3.0720     0.9580 N.am  1 <1>  -0.5470 
  9 C       -0.2410    -3.9740     0.8580 C.ar  1 <1>  -0.1500 
 10 C        1.0320    -3.9260    -1.1600 C.ar  1 <1>  -0.1500 
 11 C       -2.9900    -3.4740     2.1710 C.2   1 <1>   0.5690 
 12 C        0.9250    -4.2550     0.1770 C.ar  1 <1>  -0.1500 
 13 O       -2.4560    -4.2880     2.8850 O.2   1 <1>  -0.5700 
 14 C       -4.3040    -2.8410     2.6370 C.3   1 <1>   0.1710 
 15 N       -5.0510    -2.1070     1.5740 N.3   1 <1>  -0.8100 
 16 C       -5.7560    -3.0400     0.6560 C.3   1 <1>   0.1100 
 17 C       -6.0320    -1.1680     2.1670 C.3   1 <1>   0.1100 
 18 C       -6.5400    -2.2940    -0.4430 C.3   1 <1>   0.2090 
 19 C       -6.8260    -0.3960     1.0960 C.3   1 <1>   0.2090 
 20 N       -7.5100    -1.3330     0.1560 N.pl3 1 <1>  -0.8380 
 21 C       -8.4820    -0.8250    -0.6850 C.ar  1 <1>   0.4100 
 22 N       -8.3880     0.4530    -1.0360 N.ar  1 <1>  -0.6200 
 23 C       -9.5020    -1.6620    -1.1310 C.ar  1 <1>  -0.1500 
 24 C       -9.3280     0.9000    -1.8520 C.ar  1 <1>   0.1600 
 25 C      -10.4730    -1.1850    -1.9790 C.ar  1 <1>  -0.1500 
 26 C      -10.3730     0.1410    -2.3470 C.ar  1 <1>  -0.1500 
 27 H       -2.4730    -0.4090    -4.4630 H     1 <1>   0.0800 
 28 H       -3.4980    -0.2790    -3.0330 H     1 <1>   0.0800 
 29 H       -3.6440    -1.6780    -4.1000 H     1 <1>   0.0800 
 30 H        0.0700    -3.0720    -2.8410 H     1 <1>   0.1500 
 31 H       -3.1960    -2.4970     0.4600 H     1 <1>   0.3700 
 32 H       -0.2930    -4.2320     1.8990 H     1 <1>   0.1500 
 33 H        1.9400    -4.1430    -1.6960 H     1 <1>   0.1500 
 34 H        1.7480    -4.7280     0.6860 H     1 <1>   0.1500 
 35 H       -4.0490    -2.1550     3.4250 H     1 <1>   0.0800 
 36 H       -4.9280    -3.6080     3.0620 H     1 <1>   0.0800 
 37 H       -6.4470    -3.6480     1.2130 H     1 <1>   0.0800 
 38 H       -5.0460    -3.6950     0.1820 H     1 <1>   0.0800 
 39 H       -5.5150    -0.4560     2.7860 H     1 <1>   0.0800 
 40 H       -6.7280    -1.7080     2.7860 H     1 <1>   0.0800 
 41 H       -7.0610    -3.0080    -1.0550 H     1 <1>   0.0800 
 42 H       -5.8520    -1.7560    -1.0720 H     1 <1>   0.0800 
 43 H       -6.1550     0.2380     0.5430 H     1 <1>   0.0800 
 44 H       -7.5610     0.2290     1.5720 H     1 <1>   0.0800 
 45 H       -9.5170    -2.6800    -0.7940 H     1 <1>   0.1500 
 46 H       -9.2600     1.9340    -2.1430 H     1 <1>   0.1500 
 47 H      -11.2720    -1.8110    -2.3370 H     1 <1>   0.1500 
 48 H      -11.0970     0.5820    -3.0070 H     1 <1>   0.1500 
@<TRIPOS>BOND
  1   1   2  2   
  2   2   3  1   
  3   2   4  1   
  4   3   5  1   
  5   4   6  ar  
  6   4   7  ar  
  7   5  27  1   
  8   5  28  1   
  9   5  29  1   
 10   6   8  1   
 11   6   9  ar  
 12   7  10  ar  
 13   7  30  1   
 14   8  11  am  
 15   8  31  1   
 16   9  12  ar  
 17   9  32  1   
 18  10  12  ar  
 19  10  33  1   
 20  11  13  2   
 21  11  14  1   
 22  12  34  1   
 23  14  15  1   
 24  14  35  1   
 25  14  36  1   
 26  15  16  1   
 27  15  17  1   
 28  16  18  1   
 29  16  37  1   
 30  16  38  1   
 31  17  19  1   
 32  17  39  1   
 33  17  40  1   
 34  18  20  1   
 35  18  41  1   
 36  18  42  1   
 37  19  20  1   
 38  19  43  1   
 39  19  44  1   
 40  20  21  1   
 41  21  22  ar  
 42  21  23  ar  
 43  22  24  ar  
 44  23  25  ar  
 45  23  45  1   
 46  24  26  ar  
 47  24  46  1   
 48  25  26  ar  
 49  25  47  1   
 50  26  48  1   
@<TRIPOS>SUBSTRUCTURE
  1 ****   1 GROUP 4 **** **** 0

# MOE 2024.06 (io_trps.svl 2023.06)
