@<TRIPOS>MOLECULE
N-(2-Cyclohex-1-enyl-ethyl)-2-(5-cyclopropyl-3-difluoromethyl-pyrazol-1-yl)-acet
46 48 1 0 0 
SMALL
USER_CHARGES


@<TRIPOS>ATOM
  1 F       -2.5380    -3.1220     1.5490 F     1 <1>  -0.3400 
  2 C       -1.3920    -3.2350     2.2140 C.3   1 <1>   0.7810 
  3 F       -0.9440    -1.9870     2.3250 F     1 <1>  -0.3400 
  4 C       -0.3970    -4.0990     1.4260 C.2   1 <1>   0.1080 
  5 N       -0.0050    -5.2940     1.7830 N.2   1 <1>  -0.7070 
  6 C        0.2010    -3.7030     0.2320 C.2   1 <1>  -0.1500 
  7 N        0.8640    -5.6800     0.8240 N.pl3 1 <1>   0.3140 
  8 C        0.9960    -4.7320    -0.1290 C.2   1 <1>  -0.2370 
  9 C        1.5050    -7.0020     0.8580 C.3   1 <1>   0.1570 
 10 C        1.8780    -4.8740    -1.3550 C.3   1 <1>  -0.0150 
 11 C        0.6380    -8.0010     0.1290 C.2   1 <1>   0.5690 
 12 C        3.3510    -4.6560    -1.2300 C.3   1 <1>  -0.2000 
 13 C        2.5050    -3.6690    -1.9790 C.3   1 <1>  -0.2000 
 14 O        1.1700    -8.7770    -0.6280 O.2   1 <1>  -0.5700 
 15 N       -0.7040    -8.0060     0.3480 N.am  1 <1>  -0.7300 
 16 C       -1.6870    -8.9030    -0.3020 C.3   1 <1>   0.1400 
 17 C       -2.5340    -9.6040     0.7630 C.3   1 <1>  -0.0220 
 18 C       -3.6170   -10.5220     0.1960 C.2   1 <1>  -0.2760 
 19 C       -3.8580   -10.7320    -1.1060 C.2   1 <1>  -0.2880 
 20 C       -4.4270   -11.2120     1.2900 C.3   1 <1>  -0.0220 
 21 C       -4.9230   -11.6740    -1.6440 C.3   1 <1>  -0.0220 
 22 C       -5.7170   -11.8430     0.7470 C.3   1 <1>  -0.1600 
 23 C       -5.4500   -12.6130    -0.5510 C.3   1 <1>  -0.1600 
 24 H       -1.6030    -3.6100     3.1980 H     1 <1>   0.0800 
 25 H        0.0390    -2.7680    -0.2750 H     1 <1>   0.1500 
 26 H        1.6220    -7.3070     1.8790 H     1 <1>   0.0800 
 27 H        2.4700    -6.9450     0.3930 H     1 <1>   0.0800 
 28 H        1.5420    -5.6510    -2.0220 H     1 <1>   0.1000 
 29 H        4.0170    -5.2940    -1.7860 H     1 <1>   0.1000 
 30 H        3.7560    -4.3610    -0.2780 H     1 <1>   0.1000 
 31 H        2.3340    -2.7030    -1.5370 H     1 <1>   0.1000 
 32 H        2.5790    -3.6270    -3.0510 H     1 <1>   0.1000 
 33 H       -1.0950    -7.2580     0.9360 H     1 <1>   0.3700 
 34 H       -1.1750    -9.6400    -0.8980 H     1 <1>   0.0800 
 35 H       -2.3210    -8.3200    -0.9470 H     1 <1>   0.0800 
 36 H       -3.0060    -8.8550     1.3730 H     1 <1>   0.0800 
 37 H       -1.8800   -10.1880     1.3860 H     1 <1>   0.0800 
 38 H       -3.3170   -10.2520    -1.9020 H     1 <1>   0.1500 
 39 H       -4.6920   -10.5040     2.0560 H     1 <1>   0.0800 
 40 H       -3.8170   -11.9750     1.7410 H     1 <1>   0.0800 
 41 H       -4.5120   -12.2640    -2.4440 H     1 <1>   0.0800 
 42 H       -5.7320   -11.0880    -2.0420 H     1 <1>   0.0800 
 43 H       -6.4340   -11.0640     0.5520 H     1 <1>   0.0800 
 44 H       -6.1350   -12.5030     1.4880 H     1 <1>   0.0800 
 45 H       -4.7170   -13.3770    -0.3610 H     1 <1>   0.0800 
 46 H       -6.3520   -13.0910    -0.8910 H     1 <1>   0.0800 
@<TRIPOS>BOND
  1   1   2  1   
  2   2   3  1   
  3   2   4  1   
  4   2  24  1   
  5   4   5  2   
  6   4   6  1   
  7   5   7  1   
  8   6   8  2   
  9   6  25  1   
 10   7   8  1   
 11   7   9  1   
 12   8  10  1   
 13   9  11  1   
 14   9  26  1   
 15   9  27  1   
 16  10  12  1   
 17  10  13  1   
 18  10  28  1   
 19  11  14  2   
 20  11  15  am  
 21  12  13  1   
 22  12  29  1   
 23  12  30  1   
 24  13  31  1   
 25  13  32  1   
 26  15  16  1   
 27  15  33  1   
 28  16  17  1   
 29  16  34  1   
 30  16  35  1   
 31  17  18  1   
 32  17  36  1   
 33  17  37  1   
 34  18  19  2   
 35  18  20  1   
 36  19  21  1   
 37  19  38  1   
 38  20  22  1   
 39  20  39  1   
 40  20  40  1   
 41  21  23  1   
 42  21  41  1   
 43  21  42  1   
 44  22  23  1   
 45  22  43  1   
 46  22  44  1   
 47  23  45  1   
 48  23  46  1   
@<TRIPOS>SUBSTRUCTURE
  1 ****  15 GROUP 4 **** **** 0

# MOE 2024.06 (io_trps.svl 2023.06)
