@<TRIPOS>MOLECULE
1-Allylsulfanyl-3,8,8-trimethyl-8,9-dihydro-6H-7-oxa-11-thia-2,4,10-triaza-benzo
43 46 1 0 0 
SMALL
USER_CHARGES


@<TRIPOS>ATOM
  1 S       -0.2380    -1.1620    -0.1010 S.3   1 <1>  -0.0800 
  2 C       -1.6210    -0.0590    -0.1670 C.ar  1 <1>   0.2970 
  3 C        0.8960     0.1540    -0.4650 C.ar  1 <1>   0.0400 
  4 N       -2.8550    -0.4820     0.0390 N.ar  1 <1>  -0.5670 
  5 C       -1.1970     1.2320    -0.4530 C.ar  1 <1>   0.0000 
  6 C        2.2600     0.1400    -0.6000 C.ar  1 <1>   0.4120 
  7 C        0.2290     1.3430    -0.6190 C.ar  1 <1>   0.2560 
  8 C       -3.7630     0.4780    -0.0480 C.ar  1 <1>   0.1660 
  9 C       -2.1730     2.2100    -0.5350 C.ar  1 <1>  -0.1500 
 10 S        3.1600    -1.3950    -0.4040 S.3   1 <1>  -0.3320 
 11 N        2.9430     1.2290    -0.8770 N.ar  1 <1>  -0.6200 
 12 N        0.8970     2.4580    -0.8920 N.ar  1 <1>  -0.5660 
 13 C       -3.4810     1.8170    -0.3270 C.ar  1 <1>  -0.1430 
 14 C       -5.2010     0.0510     0.1600 C.3   1 <1>  -0.0170 
 15 C        4.9480    -0.9150    -0.4550 C.3   1 <1>   0.2080 
 16 C        2.2090     2.3300    -1.0030 C.ar  1 <1>   0.4770 
 17 C       -4.5960     2.8540    -0.3880 C.3   1 <1>   0.2640 
 18 C       -6.1200     1.2350     0.5010 C.3   1 <1>   0.2800 
 19 C        5.4280    -0.4080     0.9020 C.2   1 <1>  -0.2880 
 20 C        2.9850     3.5880    -1.3110 C.3   1 <1>  -0.0960 
 21 O       -5.8670     2.2690    -0.4000 O.3   1 <1>  -0.5600 
 22 C       -5.9350     1.7350     1.9430 C.3   1 <1>  -0.2400 
 23 C       -7.5850     0.8540     0.2880 C.3   1 <1>  -0.2400 
 24 C        4.7410    -0.3240     2.0470 C.2   1 <1>  -0.3000 
 25 H       -1.9010     3.2290    -0.7530 H     1 <1>   0.1500 
 26 H       -5.2510    -0.6790     0.9470 H     1 <1>   0.0800 
 27 H       -5.5400    -0.4220    -0.7430 H     1 <1>   0.0800 
 28 H        5.0620    -0.1670    -1.2180 H     1 <1>   0.0800 
 29 H        5.4920    -1.7980    -0.7400 H     1 <1>   0.0800 
 30 H       -4.5080     3.4380    -1.2880 H     1 <1>   0.0800 
 31 H       -4.5380     3.5190     0.4560 H     1 <1>   0.0800 
 32 H        6.4580    -0.0970     0.8510 H     1 <1>   0.1500 
 33 H        3.4740     3.4830    -2.2620 H     1 <1>   0.0800 
 34 H        3.7260     3.7480    -0.5510 H     1 <1>   0.0800 
 35 H        2.3310     4.4400    -1.3460 H     1 <1>   0.0800 
 36 H       -4.9020     1.9310     2.1660 H     1 <1>   0.0800 
 37 H       -6.2750     0.9850     2.6340 H     1 <1>   0.0800 
 38 H       -6.5120     2.6280     2.1040 H     1 <1>   0.0800 
 39 H       -7.7490     0.5550    -0.7320 H     1 <1>   0.0800 
 40 H       -8.2230     1.6900     0.5100 H     1 <1>   0.0800 
 41 H       -7.8580     0.0360     0.9300 H     1 <1>   0.0800 
 42 H        5.1570     0.0500     2.9660 H     1 <1>   0.1500 
 43 H        3.7120    -0.6160     2.1730 H     1 <1>   0.1500 
@<TRIPOS>BOND
  1   1   2  1   
  2   1   3  1   
  3   2   4  ar  
  4   2   5  ar  
  5   3   6  ar  
  6   3   7  ar  
  7   4   8  ar  
  8   5   7  1   
  9   5   9  ar  
 10   6  10  1   
 11   6  11  ar  
 12   7  12  ar  
 13   8  13  ar  
 14   8  14  1   
 15   9  13  ar  
 16   9  25  1   
 17  10  15  1   
 18  11  16  ar  
 19  12  16  ar  
 20  13  17  1   
 21  14  18  1   
 22  14  26  1   
 23  14  27  1   
 24  15  19  1   
 25  15  28  1   
 26  15  29  1   
 27  16  20  1   
 28  17  21  1   
 29  17  30  1   
 30  17  31  1   
 31  18  21  1   
 32  18  22  1   
 33  18  23  1   
 34  19  24  2   
 35  19  32  1   
 36  20  33  1   
 37  20  34  1   
 38  20  35  1   
 39  22  36  1   
 40  22  37  1   
 41  22  38  1   
 42  23  39  1   
 43  23  40  1   
 44  23  41  1   
 45  24  42  1   
 46  24  43  1   
@<TRIPOS>SUBSTRUCTURE
  1 ****   5 GROUP 4 **** **** 0

# MOE 2024.06 (io_trps.svl 2023.06)
