@<TRIPOS>MOLECULE
N-[2-(4-Isobutyryl-piperazin-1-yl)-phenyl]-3,4-dimethoxy-benzamide
59 61 1 0 0 
SMALL
USER_CHARGES


@<TRIPOS>ATOM
  1 O       -0.1370     0.0380    -0.1880 O.2   1 <1>  -0.5700 
  2 C       -0.1240    -1.1350     0.1310 C.2   1 <1>   0.5440 
  3 N        1.0330    -1.8630     0.0390 N.am  1 <1>  -0.5470 
  4 C       -1.3370    -1.7860     0.5920 C.ar  1 <1>   0.0860 
  5 C        2.3640    -1.5840    -0.3070 C.ar  1 <1>   0.1170 
  6 C       -2.5920    -1.3090     0.2140 C.ar  1 <1>  -0.1500 
  7 C       -1.3060    -2.9080     1.4200 C.ar  1 <1>  -0.1500 
  8 C        3.2360    -2.6820    -0.3290 C.ar  1 <1>   0.1000 
  9 C        2.8450    -0.3180    -0.6140 C.ar  1 <1>  -0.1500 
 10 C       -3.7770    -1.9150     0.6190 C.ar  1 <1>   0.0830 
 11 C       -2.4700    -3.5270     1.8290 C.ar  1 <1>  -0.1500 
 12 N        2.7520    -3.9670    -0.0170 N.pl3 1 <1>  -0.8380 
 13 C        4.5690    -2.4800    -0.6610 C.ar  1 <1>  -0.1500 
 14 C        4.1780    -0.1340    -0.9430 C.ar  1 <1>  -0.1500 
 15 O       -4.9870    -1.4140     0.2280 O.3   1 <1>  -0.3630 
 16 C       -3.7120    -3.0550     1.4410 C.ar  1 <1>   0.0830 
 17 C        2.5670    -4.9270    -1.1520 C.3   1 <1>   0.2090 
 18 C        3.1880    -4.5820     1.2800 C.3   1 <1>   0.2090 
 19 C        5.0400    -1.2150    -0.9670 C.ar  1 <1>  -0.1500 
 20 C       -5.1090    -0.1970    -0.4780 C.3   1 <1>   0.0400 
 21 O       -4.7560    -3.7830     1.9260 O.3   1 <1>  -0.3630 
 22 C        3.7160    -5.9460    -1.2730 C.3   1 <1>   0.1400 
 23 C        4.3270    -5.6000     1.1050 C.3   1 <1>   0.1400 
 24 C       -6.1090    -3.5070     1.6470 C.3   1 <1>   0.0400 
 25 N        3.9950    -6.6000     0.0430 N.am  1 <1>  -0.6600 
 26 C        3.7850    -7.9210     0.3580 C.2   1 <1>   0.5690 
 27 O        3.7910    -8.2890     1.5110 O.2   1 <1>  -0.5700 
 28 C        3.5160    -8.9700    -0.7360 C.3   1 <1>  -0.0190 
 29 C        2.0150    -9.0670    -1.0580 C.3   1 <1>  -0.2400 
 30 C        4.0480   -10.3670    -0.3640 C.3   1 <1>  -0.2400 
 31 H        0.9520    -2.8670     0.2190 H     1 <1>   0.3700 
 32 H       -2.6040    -0.4410    -0.4180 H     1 <1>   0.1500 
 33 H       -0.3640    -3.3040     1.7580 H     1 <1>   0.1500 
 34 H        2.1860     0.5300    -0.5970 H     1 <1>   0.1500 
 35 H       -2.4240    -4.3940     2.4660 H     1 <1>   0.1500 
 36 H        5.2420    -3.3150    -0.6820 H     1 <1>   0.1500 
 37 H        4.5380     0.8530    -1.1800 H     1 <1>   0.1500 
 38 H        2.4820    -4.3770    -2.0740 H     1 <1>   0.0800 
 39 H        1.6440    -5.4600    -1.0050 H     1 <1>   0.0800 
 40 H        2.3470    -5.0810     1.7300 H     1 <1>   0.0800 
 41 H        3.5060    -3.8070     1.9550 H     1 <1>   0.0800 
 42 H        6.0750    -1.0710    -1.2230 H     1 <1>   0.1500 
 43 H       -6.1560     0.0100    -0.6070 H     1 <1>   0.0800 
 44 H       -4.6380    -0.3000    -1.4390 H     1 <1>   0.0800 
 45 H       -4.6500     0.5890     0.0960 H     1 <1>   0.0800 
 46 H        4.6030    -5.4370    -1.6060 H     1 <1>   0.0800 
 47 H        3.4560    -6.6670    -2.0230 H     1 <1>   0.0800 
 48 H        4.5090    -6.0880     2.0460 H     1 <1>   0.0800 
 49 H        5.2280    -5.0820     0.8330 H     1 <1>   0.0800 
 50 H       -6.7110    -4.2470     2.1420 H     1 <1>   0.0800 
 51 H       -6.2640    -3.5600     0.5840 H     1 <1>   0.0800 
 52 H       -6.3500    -2.5290     2.0240 H     1 <1>   0.0800 
 53 H        4.0450    -8.6750    -1.6230 H     1 <1>   0.0800 
 54 H        1.4730    -9.3930    -0.1870 H     1 <1>   0.0800 
 55 H        1.8450    -9.7700    -1.8540 H     1 <1>   0.0800 
 56 H        1.6290    -8.1100    -1.3570 H     1 <1>   0.0800 
 57 H        3.5370   -10.7460     0.5040 H     1 <1>   0.0800 
 58 H        5.0990   -10.3120    -0.1390 H     1 <1>   0.0800 
 59 H        3.9060   -11.0570    -1.1770 H     1 <1>   0.0800 
@<TRIPOS>BOND
  1   1   2  2   
  2   2   3  am  
  3   2   4  1   
  4   3   5  1   
  5   3  31  1   
  6   4   6  ar  
  7   4   7  ar  
  8   5   8  ar  
  9   5   9  ar  
 10   6  10  ar  
 11   6  32  1   
 12   7  11  ar  
 13   7  33  1   
 14   8  12  1   
 15   8  13  ar  
 16   9  14  ar  
 17   9  34  1   
 18  10  15  1   
 19  10  16  ar  
 20  11  16  ar  
 21  11  35  1   
 22  12  17  1   
 23  12  18  1   
 24  13  19  ar  
 25  13  36  1   
 26  14  19  ar  
 27  14  37  1   
 28  15  20  1   
 29  16  21  1   
 30  17  22  1   
 31  17  38  1   
 32  17  39  1   
 33  18  23  1   
 34  18  40  1   
 35  18  41  1   
 36  19  42  1   
 37  20  43  1   
 38  20  44  1   
 39  20  45  1   
 40  21  24  1   
 41  22  25  1   
 42  22  46  1   
 43  22  47  1   
 44  23  25  1   
 45  23  48  1   
 46  23  49  1   
 47  24  50  1   
 48  24  51  1   
 49  24  52  1   
 50  25  26  am  
 51  26  27  2   
 52  26  28  1   
 53  28  29  1   
 54  28  30  1   
 55  28  53  1   
 56  29  54  1   
 57  29  55  1   
 58  29  56  1   
 59  30  57  1   
 60  30  58  1   
 61  30  59  1   
@<TRIPOS>SUBSTRUCTURE
  1 ****   3 GROUP 4 **** **** 0

# MOE 2024.06 (io_trps.svl 2023.06)
