@<TRIPOS>MOLECULE
N-(4-Methoxy-phenyl)-2-[4-(2,4,6-trimethyl-phenyl)-piperazin-1-yl]-acetamide
56 58 1 0 0 
SMALL
USER_CHARGES


@<TRIPOS>ATOM
  1 O       -0.8770    -0.1280    -0.7080 O.2   1 <1>  -0.5700 
  2 C       -1.5770     0.5900    -0.0360 C.2   1 <1>   0.5690 
  3 N       -1.2220     1.8330     0.4050 N.am  1 <1>  -0.5470 
  4 C       -2.9740     0.1090     0.3610 C.3   1 <1>   0.1710 
  5 C       -0.0740     2.6240     0.2430 C.ar  1 <1>   0.1170 
  6 N       -3.9270     1.2190     0.6650 N.3   1 <1>  -0.8100 
  7 C       -0.1200     3.9480     0.6620 C.ar  1 <1>  -0.1500 
  8 C        1.1100     2.1470    -0.3130 C.ar  1 <1>  -0.1500 
  9 C       -4.3580     1.9010    -0.5880 C.3   1 <1>   0.1100 
 10 C       -5.1220     0.7010     1.3790 C.3   1 <1>   0.1100 
 11 C        0.9810     4.7750     0.5250 C.ar  1 <1>  -0.1500 
 12 C        2.2140     2.9700    -0.4520 C.ar  1 <1>  -0.1500 
 13 C       -5.3520     3.0490    -0.3240 C.3   1 <1>   0.2090 
 14 C       -6.1400     1.8110     1.7070 C.3   1 <1>   0.2090 
 15 C        2.1540     4.2950    -0.0330 C.ar  1 <1>   0.0820 
 16 N       -6.5020     2.5560     0.4750 N.pl3 1 <1>  -0.8380 
 17 O        3.1870     5.1720    -0.1330 O.3   1 <1>  -0.3620 
 18 C       -7.7840     3.0770     0.2870 C.ar  1 <1>   0.1000 
 19 C        4.4180     4.7780    -0.6970 C.3   1 <1>   0.0400 
 20 C       -8.2170     4.2210     0.9670 C.ar  1 <1>  -0.1430 
 21 C       -8.6590     2.4450    -0.6000 C.ar  1 <1>  -0.1430 
 22 C       -9.4950     4.7080     0.7530 C.ar  1 <1>  -0.1500 
 23 C       -7.3140     4.9560     1.9480 C.3   1 <1>  -0.0970 
 24 C       -9.9320     2.9500    -0.8000 C.ar  1 <1>  -0.1500 
 25 C       -8.2310     1.1940    -1.3560 C.3   1 <1>  -0.0970 
 26 C      -10.3580     4.0820    -0.1290 C.ar  1 <1>  -0.1430 
 27 C      -11.7570     4.6270    -0.3530 C.3   1 <1>  -0.0970 
 28 H       -2.0050     2.2740     0.8970 H     1 <1>   0.3700 
 29 H       -2.8550    -0.5060     1.2350 H     1 <1>   0.0800 
 30 H       -3.3670    -0.5100    -0.4270 H     1 <1>   0.0800 
 31 H       -1.0210     4.3390     1.0970 H     1 <1>   0.1500 
 32 H        1.1780     1.1270    -0.6400 H     1 <1>   0.1500 
 33 H       -4.8320     1.1900    -1.2430 H     1 <1>   0.0800 
 34 H       -3.5020     2.3020    -1.1010 H     1 <1>   0.0800 
 35 H       -4.8160     0.2350     2.2990 H     1 <1>   0.0800 
 36 H       -5.6140    -0.0430     0.7750 H     1 <1>   0.0800 
 37 H        0.9390     5.7990     0.8500 H     1 <1>   0.1500 
 38 H        3.1060     2.5600    -0.8870 H     1 <1>   0.1500 
 39 H       -5.7090     3.4470    -1.2580 H     1 <1>   0.0800 
 40 H       -4.8540     3.8360     0.2120 H     1 <1>   0.0800 
 41 H       -5.7080     2.4880     2.4210 H     1 <1>   0.0800 
 42 H       -7.0270     1.3810     2.1380 H     1 <1>   0.0800 
 43 H        5.0800     5.6240    -0.6780 H     1 <1>   0.0800 
 44 H        4.2530     4.4640    -1.7120 H     1 <1>   0.0800 
 45 H        4.8320     3.9780    -0.1070 H     1 <1>   0.0800 
 46 H       -9.8280     5.5850     1.2780 H     1 <1>   0.1500 
 47 H       -7.1720     4.3570     2.8280 H     1 <1>   0.0800 
 48 H       -7.7440     5.8960     2.2400 H     1 <1>   0.0800 
 49 H       -6.3590     5.1490     1.4970 H     1 <1>   0.0800 
 50 H      -10.6010     2.4600    -1.4830 H     1 <1>   0.1500 
 51 H       -7.9070     0.4440    -0.6580 H     1 <1>   0.0800 
 52 H       -7.4150     1.4320    -2.0120 H     1 <1>   0.0800 
 53 H       -9.0390     0.7950    -1.9390 H     1 <1>   0.0800 
 54 H      -11.7700     5.6940    -0.2200 H     1 <1>   0.0800 
 55 H      -12.4360     4.1800     0.3500 H     1 <1>   0.0800 
 56 H      -12.0910     4.4060    -1.3500 H     1 <1>   0.0800 
@<TRIPOS>BOND
  1   1   2  2   
  2   2   3  am  
  3   2   4  1   
  4   3   5  1   
  5   3  28  1   
  6   4   6  1   
  7   4  29  1   
  8   4  30  1   
  9   5   7  ar  
 10   5   8  ar  
 11   6   9  1   
 12   6  10  1   
 13   7  11  ar  
 14   7  31  1   
 15   8  12  ar  
 16   8  32  1   
 17   9  13  1   
 18   9  33  1   
 19   9  34  1   
 20  10  14  1   
 21  10  35  1   
 22  10  36  1   
 23  11  15  ar  
 24  11  37  1   
 25  12  15  ar  
 26  12  38  1   
 27  13  16  1   
 28  13  39  1   
 29  13  40  1   
 30  14  16  1   
 31  14  41  1   
 32  14  42  1   
 33  15  17  1   
 34  16  18  1   
 35  17  19  1   
 36  18  20  ar  
 37  18  21  ar  
 38  19  43  1   
 39  19  44  1   
 40  19  45  1   
 41  20  22  ar  
 42  20  23  1   
 43  21  24  ar  
 44  21  25  1   
 45  22  26  ar  
 46  22  46  1   
 47  23  47  1   
 48  23  48  1   
 49  23  49  1   
 50  24  26  ar  
 51  24  50  1   
 52  25  51  1   
 53  25  52  1   
 54  25  53  1   
 55  26  27  1   
 56  27  54  1   
 57  27  55  1   
 58  27  56  1   
@<TRIPOS>SUBSTRUCTURE
  1 ****   9 GROUP 4 **** **** 0

# MOE 2024.06 (io_trps.svl 2023.06)
