@<TRIPOS>MOLECULE
N-{3-[5-(2,3-Dimethoxy-phenyl)-1-propionyl-4,5-dihydro-1H-pyrazol-3-yl]-phenyl}-
55 57 1 0 0 
SMALL
USER_CHARGES


@<TRIPOS>ATOM
  1 S        1.7080    -0.7770    -1.1510 S.o2  1 <1>   1.3330 
  2 O        2.1510    -1.5070    -2.3120 O.2   1 <1>  -0.6500 
  3 O        0.8870     0.4000    -1.2660 O.2   1 <1>  -0.6500 
  4 N        0.7640    -1.8430    -0.1930 N.am  1 <1>  -0.7570 
  5 C        3.0870    -0.4170    -0.0830 C.3   1 <1>  -0.1350 
  6 C        0.9480    -3.1960     0.0690 C.ar  1 <1>   0.1990 
  7 C        2.1050    -3.8760    -0.2840 C.ar  1 <1>  -0.1500 
  8 C       -0.0550    -3.8960     0.7270 C.ar  1 <1>  -0.1500 
  9 C        2.2960    -5.2260     0.0040 C.ar  1 <1>   0.0860 
 10 C        0.1040    -5.2350     1.0320 C.ar  1 <1>  -0.1500 
 11 C        3.5130    -5.9130    -0.3490 C.2   1 <1>   0.3030 
 12 C        1.2690    -5.8880     0.6770 C.ar  1 <1>  -0.1500 
 13 N        4.0690    -6.8430     0.3220 N.2   1 <1>  -0.5120 
 14 C        4.2700    -5.5690    -1.6180 C.3   1 <1>  -0.0990 
 15 N        5.2640    -7.1950    -0.2630 N.am  1 <1>  -0.2980 
 16 C        5.5800    -6.3200    -1.4090 C.3   1 <1>   0.3640 
 17 C        6.0750    -8.2650     0.0590 C.2   1 <1>   0.5690 
 18 C        6.7960    -5.4170    -1.1360 C.ar  1 <1>  -0.1430 
 19 O        7.0140    -8.6010    -0.6270 O.2   1 <1>  -0.5700 
 20 C        5.7740    -9.0780     1.3100 C.3   1 <1>  -0.0990 
 21 C        6.7930    -4.3010    -0.2940 C.ar  1 <1>   0.0830 
 22 C        7.9790    -5.7510    -1.7820 C.ar  1 <1>  -0.1500 
 23 C        4.7380   -10.1840     1.0580 C.3   1 <1>  -0.2400 
 24 O        5.6650    -3.9580     0.3810 O.3   1 <1>  -0.3630 
 25 C        7.9410    -3.5130    -0.1420 C.ar  1 <1>   0.0830 
 26 C        9.1210    -4.9900    -1.6240 C.ar  1 <1>  -0.1500 
 27 C        5.6490    -4.2930     1.7510 C.3   1 <1>   0.0400 
 28 O        7.8700    -2.4090     0.6600 O.3   1 <1>  -0.3630 
 29 C        9.1060    -3.8720    -0.8110 C.ar  1 <1>  -0.1500 
 30 C        8.9680    -1.5390     0.8190 C.3   1 <1>   0.0400 
 31 H       -0.1470    -1.4290    -0.0220 H     1 <1>   0.4200 
 32 H        3.7410     0.2890    -0.5560 H     1 <1>   0.0800 
 33 H        3.6450    -1.3080     0.1280 H     1 <1>   0.0800 
 34 H        2.7420     0.0020     0.8410 H     1 <1>   0.0800 
 35 H        2.8890    -3.3450    -0.7830 H     1 <1>   0.1500 
 36 H       -0.9620    -3.3910     1.0070 H     1 <1>   0.1500 
 37 H       -0.6770    -5.7690     1.5470 H     1 <1>   0.1500 
 38 H        1.3950    -6.9290     0.9230 H     1 <1>   0.1500 
 39 H        4.4380    -4.5200    -1.7640 H     1 <1>   0.0800 
 40 H        3.7490    -5.9640    -2.4690 H     1 <1>   0.0800 
 41 H        5.7710    -6.9370    -2.2690 H     1 <1>   0.0800 
 42 H        5.4200    -8.4170     2.0800 H     1 <1>   0.0800 
 43 H        6.6910    -9.5210     1.6550 H     1 <1>   0.0800 
 44 H        8.0220    -6.6220    -2.4150 H     1 <1>   0.1500 
 45 H        3.8080    -9.7510     0.7310 H     1 <1>   0.0800 
 46 H        4.5620   -10.7410     1.9610 H     1 <1>   0.0800 
 47 H        5.0930   -10.8570     0.2970 H     1 <1>   0.0800 
 48 H       10.0260    -5.2710    -2.1340 H     1 <1>   0.1500 
 49 H        4.6650    -4.0940     2.1350 H     1 <1>   0.0800 
 50 H        6.3770    -3.6960     2.2690 H     1 <1>   0.0800 
 51 H        5.8790    -5.3390     1.8560 H     1 <1>   0.0800 
 52 H       10.0100    -3.3020    -0.7150 H     1 <1>   0.1500 
 53 H        9.7860    -2.0830     1.2560 H     1 <1>   0.0800 
 54 H        8.6680    -0.7410     1.4740 H     1 <1>   0.0800 
 55 H        9.2380    -1.1390    -0.1430 H     1 <1>   0.0800 
@<TRIPOS>BOND
  1   1   2  2   
  2   1   3  2   
  3   1   4  am  
  4   1   5  1   
  5   4   6  1   
  6   4  31  1   
  7   5  32  1   
  8   5  33  1   
  9   5  34  1   
 10   6   7  ar  
 11   6   8  ar  
 12   7   9  ar  
 13   7  35  1   
 14   8  10  ar  
 15   8  36  1   
 16   9  11  1   
 17   9  12  ar  
 18  10  12  ar  
 19  10  37  1   
 20  11  13  2   
 21  11  14  1   
 22  12  38  1   
 23  13  15  1   
 24  14  16  1   
 25  14  39  1   
 26  14  40  1   
 27  15  16  1   
 28  15  17  am  
 29  16  18  1   
 30  16  41  1   
 31  17  19  2   
 32  17  20  1   
 33  18  21  ar  
 34  18  22  ar  
 35  20  23  1   
 36  20  42  1   
 37  20  43  1   
 38  21  24  1   
 39  21  25  ar  
 40  22  26  ar  
 41  22  44  1   
 42  23  45  1   
 43  23  46  1   
 44  23  47  1   
 45  24  27  1   
 46  25  28  1   
 47  25  29  ar  
 48  26  29  ar  
 49  26  48  1   
 50  27  49  1   
 51  27  50  1   
 52  27  51  1   
 53  28  30  1   
 54  29  52  1   
 55  30  53  1   
 56  30  54  1   
 57  30  55  1   
@<TRIPOS>SUBSTRUCTURE
  1 ****  24 GROUP 4 **** **** 0

# MOE 2024.06 (io_trps.svl 2023.06)
