@<TRIPOS>MOLECULE
(3-Amino-4-methoxymethyl-6-methyl-thieno[2,3-b]pyridin-2-yl)-pyrrolidin-1-yl-met
40 42 1 0 0 
SMALL
USER_CHARGES


@<TRIPOS>ATOM
  1 S        0.0550    -0.0220    -0.3510 S.3   1 <1>  -0.0800 
  2 C       -1.5160     0.7370    -0.1210 C.ar  1 <1>   0.2970 
  3 C        0.8740     1.5420    -0.6050 C.2   1 <1>  -0.0450 
  4 N       -2.5920     0.0090     0.1230 N.ar  1 <1>  -0.5670 
  5 C       -1.4030     2.1190    -0.2210 C.ar  1 <1>   0.0000 
  6 C       -0.0570     2.5400    -0.5460 C.2   1 <1>   0.0830 
  7 C        2.2850     1.5140    -0.8420 C.2   1 <1>   0.7150 
  8 C       -3.6830     0.7290     0.2920 C.ar  1 <1>   0.1670 
  9 C       -2.5700     2.8520     0.0030 C.ar  1 <1>  -0.1440 
 10 N        0.2060     3.8610    -0.8460 N.pl3 1 <1>  -0.8830 
 11 O        2.7870     0.5900    -1.4650 O.2   1 <1>  -0.5700 
 12 N        3.1280     2.5110    -0.3860 N.am  1 <1>  -0.6600 
 13 C       -3.7170     2.1210     0.2480 C.ar  1 <1>  -0.1500 
 14 C       -4.9530    -0.0520     0.5560 C.3   1 <1>  -0.0970 
 15 C       -2.6240     4.3740     0.0250 C.3   1 <1>   0.2630 
 16 C        4.5860     2.4770    -0.6510 C.3   1 <1>   0.1400 
 17 C        2.8400     3.3200     0.8220 C.3   1 <1>   0.1400 
 18 O       -2.4330     4.8680    -1.2670 O.3   1 <1>  -0.5600 
 19 C        5.1930     3.4720     0.3320 C.3   1 <1>  -0.1600 
 20 C        4.1960     3.5290     1.4850 C.3   1 <1>  -0.1600 
 21 C       -2.5620     6.2500    -1.3690 C.3   1 <1>   0.0400 
 22 H       -0.6140     4.3930    -1.1920 H     1 <1>   0.4000 
 23 H        1.0540     4.0650    -1.3870 H     1 <1>   0.4000 
 24 H       -4.6510     2.6270     0.4100 H     1 <1>   0.1500 
 25 H       -5.1440    -0.7130    -0.2700 H     1 <1>   0.0800 
 26 H       -5.7960     0.6020     0.6800 H     1 <1>   0.0800 
 27 H       -4.8330    -0.6400     1.4480 H     1 <1>   0.0800 
 28 H       -1.8500     4.7640     0.6640 H     1 <1>   0.0800 
 29 H       -3.5820     4.7110     0.3820 H     1 <1>   0.0800 
 30 H        4.7930     2.7460    -1.6720 H     1 <1>   0.0800 
 31 H        4.9600     1.4850    -0.4580 H     1 <1>   0.0800 
 32 H        2.1510     2.8190     1.4810 H     1 <1>   0.0800 
 33 H        2.4280     4.2690     0.5240 H     1 <1>   0.0800 
 34 H        5.2610     4.4350    -0.1430 H     1 <1>   0.0800 
 35 H        6.1740     3.1680     0.6520 H     1 <1>   0.0800 
 36 H        4.3790     2.7180     2.1680 H     1 <1>   0.0800 
 37 H        4.2400     4.4590     2.0230 H     1 <1>   0.0800 
 38 H       -2.3840     6.5280    -2.3940 H     1 <1>   0.0800 
 39 H       -1.8350     6.7260    -0.7330 H     1 <1>   0.0800 
 40 H       -3.5600     6.5370    -1.0870 H     1 <1>   0.0800 
@<TRIPOS>BOND
  1   1   2  1   
  2   1   3  1   
  3   2   4  ar  
  4   2   5  ar  
  5   3   6  2   
  6   3   7  1   
  7   4   8  ar  
  8   5   6  1   
  9   5   9  ar  
 10   6  10  1   
 11   7  11  2   
 12   7  12  am  
 13   8  13  ar  
 14   8  14  1   
 15   9  13  ar  
 16   9  15  1   
 17  10  22  1   
 18  10  23  1   
 19  12  16  1   
 20  12  17  1   
 21  13  24  1   
 22  14  25  1   
 23  14  26  1   
 24  14  27  1   
 25  15  18  1   
 26  15  28  1   
 27  15  29  1   
 28  16  19  1   
 29  16  30  1   
 30  16  31  1   
 31  17  20  1   
 32  17  32  1   
 33  17  33  1   
 34  18  21  1   
 35  19  20  1   
 36  19  34  1   
 37  19  35  1   
 38  20  36  1   
 39  20  37  1   
 40  21  38  1   
 41  21  39  1   
 42  21  40  1   
@<TRIPOS>SUBSTRUCTURE
  1 ****   6 GROUP 4 **** **** 0

# MOE 2024.06 (io_trps.svl 2023.06)
