@<TRIPOS>MOLECULE
4-(2-Chloro-phenyl)-piperazine-1-sulfonic acid dimethylamide
37 38 1 0 0 
SMALL
USER_CHARGES


@<TRIPOS>ATOM
  1 CL      -0.6910     0.6390    -1.9270 Cl    1 <1>  -0.1770 
  2 C        0.2730     1.7700    -0.9940 C.ar  1 <1>   0.1770 
  3 C       -0.3210     2.6250    -0.0570 C.ar  1 <1>   0.1000 
  4 C        1.6370     1.7790    -1.2240 C.ar  1 <1>  -0.1500 
  5 N       -1.6900     2.6740     0.2310 N.pl3 1 <1>  -0.8380 
  6 C        0.5140     3.4900     0.6390 C.ar  1 <1>  -0.1500 
  7 C        2.4460     2.6510    -0.5160 C.ar  1 <1>  -0.1500 
  8 C       -2.5950     3.2050    -0.8340 C.3   1 <1>   0.2090 
  9 C       -2.2850     1.4930     0.9270 C.3   1 <1>   0.2090 
 10 C        1.8810     3.5070     0.4160 C.ar  1 <1>  -0.1500 
 11 C       -4.0050     3.4750    -0.2770 C.3   1 <1>   0.1960 
 12 C       -3.7070     1.8050     1.4350 C.3   1 <1>   0.1960 
 13 N       -4.5910     2.2770     0.3550 N.am  1 <1>  -0.8490 
 14 S       -6.1420     2.5770     0.9390 S.o2  1 <1>   1.5760 
 15 O       -6.1310     3.8480     1.6270 O.2   1 <1>  -0.6500 
 16 O       -6.6280     1.3860     1.6000 O.2   1 <1>  -0.6500 
 17 N       -6.9820     2.7490    -0.5200 N.am  1 <1>  -0.8490 
 18 C       -8.3130     3.3160    -0.3070 C.3   1 <1>   0.1160 
 19 C       -7.0830     1.4860    -1.2570 C.3   1 <1>   0.1160 
 20 H        2.0600     1.1090    -1.9500 H     1 <1>   0.1500 
 21 H        0.0760     4.1540     1.3610 H     1 <1>   0.1500 
 22 H        3.5080     2.6650    -0.6880 H     1 <1>   0.1500 
 23 H       -2.6680     2.4960    -1.6390 H     1 <1>   0.0800 
 24 H       -2.1830     4.1190    -1.2260 H     1 <1>   0.0800 
 25 H       -1.6590     1.2190     1.7590 H     1 <1>   0.0800 
 26 H       -2.3320     0.6570     0.2530 H     1 <1>   0.0800 
 27 H        2.5060     4.1870     0.9690 H     1 <1>   0.1500 
 28 H       -4.6380     3.8010    -1.0840 H     1 <1>   0.0800 
 29 H       -3.9420     4.2780     0.4390 H     1 <1>   0.0800 
 30 H       -3.6440     2.5520     2.2090 H     1 <1>   0.0800 
 31 H       -4.1180     0.9100     1.8690 H     1 <1>   0.0800 
 32 H       -8.2290     4.2790     0.1690 H     1 <1>   0.0800 
 33 H       -8.9020     2.6680     0.3220 H     1 <1>   0.0800 
 34 H       -8.8160     3.4480    -1.2500 H     1 <1>   0.0800 
 35 H       -6.0990     1.0890    -1.4450 H     1 <1>   0.0800 
 36 H       -7.5680     1.6480    -2.2040 H     1 <1>   0.0800 
 37 H       -7.6450     0.7610    -0.6910 H     1 <1>   0.0800 
@<TRIPOS>BOND
  1   1   2  1   
  2   2   3  ar  
  3   2   4  ar  
  4   3   5  1   
  5   3   6  ar  
  6   4   7  ar  
  7   4  20  1   
  8   5   8  1   
  9   5   9  1   
 10   6  10  ar  
 11   6  21  1   
 12   7  10  ar  
 13   7  22  1   
 14   8  11  1   
 15   8  23  1   
 16   8  24  1   
 17   9  12  1   
 18   9  25  1   
 19   9  26  1   
 20  10  27  1   
 21  11  13  1   
 22  11  28  1   
 23  11  29  1   
 24  12  13  1   
 25  12  30  1   
 26  12  31  1   
 27  13  14  am  
 28  14  15  2   
 29  14  16  2   
 30  14  17  am  
 31  17  18  1   
 32  17  19  1   
 33  18  32  1   
 34  18  33  1   
 35  18  34  1   
 36  19  35  1   
 37  19  36  1   
 38  19  37  1   
@<TRIPOS>SUBSTRUCTURE
  1 ****   8 GROUP 4 **** **** 0

# MOE 2024.06 (io_trps.svl 2023.06)
