@<TRIPOS>MOLECULE
3-(5-Benzylsulfanyl-4-methyl-4H-[1,2,4]triazol-3-yl)-1-thiophen-2-ylmethyl-piper
51 54 1 0 0 
SMALL
USER_CHARGES


@<TRIPOS>ATOM
  1 S       -2.4060     1.2040    -1.4360 S.3   1 <1>  -0.0800 
  2 C       -1.8950     1.5410     0.2120 C.2   1 <1>  -0.1400 
  3 C       -1.4710    -0.2790    -1.4690 C.2   1 <1>  -0.1100 
  4 C       -1.0760     0.5700     0.6610 C.2   1 <1>  -0.1500 
  5 C       -2.4200     2.8110     0.8430 C.3   1 <1>   0.5230 
  6 C       -0.8350    -0.4650    -0.2980 C.2   1 <1>  -0.1500 
  7 N       -1.9310     3.9580     0.0350 N.4   1 <1>  -0.9590 
  8 C       -0.4390     4.0900     0.1600 C.3   1 <1>   0.3430 
  9 C       -2.6390     5.2210     0.3810 C.3   1 <1>   0.3430 
 10 C        0.1260     5.2290    -0.7090 C.3   1 <1>   0.1000 
 11 C       -2.1500     6.3470    -0.5330 C.3   1 <1>  -0.1600 
 12 C        1.6060     5.3970    -0.3990 C.2   1 <1>   0.0070 
 13 C       -0.6280     6.5430    -0.4390 C.3   1 <1>  -0.1600 
 14 N        2.1480     4.9570     0.6900 N.2   1 <1>  -0.3380 
 15 N        2.5060     6.0090    -1.1900 N.pl3 1 <1>   0.0480 
 16 N        3.4440     5.2710     0.6480 N.2   1 <1>  -0.3380 
 17 C        3.6170     5.8870    -0.4670 C.2   1 <1>   0.2420 
 18 C        2.3710     6.6630    -2.5090 C.3   1 <1>   0.0160 
 19 S        5.1950     6.5360    -1.0210 S.3   1 <1>  -0.2860 
 20 C        6.3280     6.0930     0.3670 C.3   1 <1>   0.2130 
 21 C        7.7170     6.6080     0.0300 C.ar  1 <1>  -0.1430 
 22 C        8.6240     5.7970    -0.6350 C.ar  1 <1>  -0.1500 
 23 C        8.0910     7.8960     0.3860 C.ar  1 <1>  -0.1500 
 24 C        9.8910     6.2650    -0.9370 C.ar  1 <1>  -0.1500 
 25 C        9.3570     8.3650     0.0840 C.ar  1 <1>  -0.1500 
 26 C       10.2590     7.5500    -0.5770 C.ar  1 <1>  -0.1500 
 27 H       -1.4960    -0.8660    -2.3720 H     1 <1>   0.1500 
 28 H       -0.6150     0.5190     1.6340 H     1 <1>   0.1500 
 29 H       -2.0740     2.8920     1.8610 H     1 <1>   0.0800 
 30 H       -3.4980     2.7850     0.8430 H     1 <1>   0.0800 
 31 H       -0.1970    -1.3010    -0.0620 H     1 <1>   0.1500 
 32 H       -2.1430     3.7120    -0.9420 H     1 <1>   0.4500 
 33 H        0.0430     3.1670    -0.1230 H     1 <1>   0.0800 
 34 H       -0.1840     4.2880     1.1880 H     1 <1>   0.0800 
 35 H       -2.4410     5.4830     1.4080 H     1 <1>   0.0800 
 36 H       -3.7040     5.0960     0.2600 H     1 <1>   0.0800 
 37 H        0.0170     4.9480    -1.7410 H     1 <1>   0.0800 
 38 H       -2.6410     7.2630    -0.2490 H     1 <1>   0.0800 
 39 H       -2.4350     6.1350    -1.5490 H     1 <1>   0.0800 
 40 H       -0.3160     7.2990    -1.1390 H     1 <1>   0.0800 
 41 H       -0.3770     6.8950     0.5490 H     1 <1>   0.0800 
 42 H        1.3750     6.5410    -2.8900 H     1 <1>   0.0800 
 43 H        3.0720     6.2230    -3.1960 H     1 <1>   0.0800 
 44 H        2.5910     7.7110    -2.4070 H     1 <1>   0.0800 
 45 H        6.3110     5.0220     0.4660 H     1 <1>   0.0800 
 46 H        5.9380     6.5490     1.2590 H     1 <1>   0.0800 
 47 H        8.3470     4.7980    -0.9220 H     1 <1>   0.1500 
 48 H        7.3950     8.5380     0.8970 H     1 <1>   0.1500 
 49 H       10.5900     5.6310    -1.4530 H     1 <1>   0.1500 
 50 H        9.6400     9.3650     0.3630 H     1 <1>   0.1500 
 51 H       11.2440     7.9140    -0.8120 H     1 <1>   0.1500 
@<TRIPOS>BOND
  1   1   2  1   
  2   1   3  1   
  3   2   4  2   
  4   2   5  1   
  5   3   6  2   
  6   3  27  1   
  7   4   6  1   
  8   4  28  1   
  9   5   7  1   
 10   5  29  1   
 11   5  30  1   
 12   6  31  1   
 13   7   8  1   
 14   7   9  1   
 15   7  32  1   
 16   8  10  1   
 17   8  33  1   
 18   8  34  1   
 19   9  11  1   
 20   9  35  1   
 21   9  36  1   
 22  10  12  1   
 23  10  13  1   
 24  10  37  1   
 25  11  13  1   
 26  11  38  1   
 27  11  39  1   
 28  12  14  2   
 29  12  15  1   
 30  13  40  1   
 31  13  41  1   
 32  14  16  1   
 33  15  17  1   
 34  15  18  1   
 35  16  17  2   
 36  17  19  1   
 37  18  42  1   
 38  18  43  1   
 39  18  44  1   
 40  19  20  1   
 41  20  21  1   
 42  20  45  1   
 43  20  46  1   
 44  21  22  ar  
 45  21  23  ar  
 46  22  24  ar  
 47  22  47  1   
 48  23  25  ar  
 49  23  48  1   
 50  24  26  ar  
 51  24  49  1   
 52  25  26  ar  
 53  25  50  1   
 54  26  51  1   
@<TRIPOS>SUBSTRUCTURE
  1 ****  12 GROUP 4 **** **** 0

# MOE 2024.06 (io_trps.svl 2023.06)
