@<TRIPOS>MOLECULE
1-(2-Ethyl-phenyl)-5-oxo-pyrrolidine-3-carboxylic acid (5-methyl-isoxazol-3-yl)-
42 44 1 0 0 
SMALL
USER_CHARGES


@<TRIPOS>ATOM
  1 O        1.4170    -0.9270     2.5840 O.2   1 <1>  -0.5700 
  2 C        2.0310    -0.7210     1.5680 C.2   1 <1>   0.5690 
  3 N        2.0860    -1.5170     0.4650 N.am  1 <1>  -0.4770 
  4 C        2.8540     0.5220     1.3780 C.3   1 <1>  -0.0990 
  5 C        1.4960    -2.7760     0.2730 C.ar  1 <1>   0.1170 
  6 C        2.9670    -0.9400    -0.5640 C.3   1 <1>   0.1400 
  7 C        3.1340     0.5270    -0.1350 C.3   1 <1>  -0.0190 
  8 C        0.1240    -2.9390     0.0560 C.ar  1 <1>  -0.1440 
  9 C        2.3160    -3.8980     0.2790 C.ar  1 <1>  -0.1500 
 10 C        4.4770     1.1330    -0.5190 C.2   1 <1>   0.5690 
 11 C       -0.3860    -4.2110    -0.1550 C.ar  1 <1>  -0.1500 
 12 C       -0.8470    -1.7620     0.0380 C.3   1 <1>  -0.0170 
 13 C        1.7990    -5.1620     0.0690 C.ar  1 <1>  -0.1500 
 14 O        5.2070     0.5220    -1.2600 O.2   1 <1>  -0.5700 
 15 N        4.7900     2.3570    -0.0150 N.am  1 <1>  -0.4930 
 16 C        0.4430    -5.3190    -0.1500 C.ar  1 <1>  -0.1500 
 17 C       -0.9050    -1.1200    -1.3500 C.3   1 <1>  -0.2400 
 18 C        5.9350     3.1320    -0.1940 C.2   1 <1>   0.3520 
 19 N        6.0560     4.2730     0.3870 N.2   1 <1>  -0.4100 
 20 C        7.0640     2.8470    -0.9630 C.2   1 <1>  -0.1500 
 21 O        7.2240     4.7410     0.0230 O.3   1 <1>  -0.0190 
 22 C        7.8470     3.9170    -0.7780 C.2   1 <1>  -0.0400 
 23 C        9.2170     4.2750    -1.3140 C.3   1 <1>  -0.0600 
 24 H        3.7590     0.4180     1.9500 H     1 <1>   0.0800 
 25 H        2.3090     1.3910     1.6960 H     1 <1>   0.0800 
 26 H        2.5230    -1.0220    -1.5410 H     1 <1>   0.0800 
 27 H        3.9060    -1.4660    -0.5490 H     1 <1>   0.0800 
 28 H        2.3630     1.0920    -0.6280 H     1 <1>   0.0800 
 29 H        3.3690    -3.7790     0.4550 H     1 <1>   0.1500 
 30 H       -1.4390    -4.3480    -0.3260 H     1 <1>   0.1500 
 31 H       -0.5630    -1.0280     0.7700 H     1 <1>   0.0800 
 32 H       -1.8300    -2.1030     0.3110 H     1 <1>   0.0800 
 33 H        2.4470    -6.0210     0.0780 H     1 <1>   0.1500 
 34 H        4.1160     2.8120     0.5950 H     1 <1>   0.3700 
 35 H        0.0330    -6.3000    -0.3150 H     1 <1>   0.1500 
 36 H        0.0610    -0.7410    -1.6260 H     1 <1>   0.0800 
 37 H       -1.6110    -0.3090    -1.3530 H     1 <1>   0.0800 
 38 H       -1.2110    -1.8480    -2.0800 H     1 <1>   0.0800 
 39 H        7.2290     1.9640    -1.5510 H     1 <1>   0.1500 
 40 H        9.5820     3.4920    -1.9530 H     1 <1>   0.0800 
 41 H        9.9040     4.4090    -0.4970 H     1 <1>   0.0800 
 42 H        9.1610     5.1890    -1.8770 H     1 <1>   0.0800 
@<TRIPOS>BOND
  1   1   2  2   
  2   2   3  am  
  3   2   4  1   
  4   3   5  1   
  5   3   6  1   
  6   4   7  1   
  7   4  24  1   
  8   4  25  1   
  9   5   8  ar  
 10   5   9  ar  
 11   6   7  1   
 12   6  26  1   
 13   6  27  1   
 14   7  10  1   
 15   7  28  1   
 16   8  11  ar  
 17   8  12  1   
 18   9  13  ar  
 19   9  29  1   
 20  10  14  2   
 21  10  15  am  
 22  11  16  ar  
 23  11  30  1   
 24  12  17  1   
 25  12  31  1   
 26  12  32  1   
 27  13  16  ar  
 28  13  33  1   
 29  15  18  1   
 30  15  34  1   
 31  16  35  1   
 32  17  36  1   
 33  17  37  1   
 34  17  38  1   
 35  18  19  2   
 36  18  20  1   
 37  19  21  1   
 38  20  22  2   
 39  20  39  1   
 40  21  22  1   
 41  22  23  1   
 42  23  40  1   
 43  23  41  1   
 44  23  42  1   
@<TRIPOS>SUBSTRUCTURE
  1 ****   7 GROUP 4 **** **** 0

# MOE 2024.06 (io_trps.svl 2023.06)
