@<TRIPOS>MOLECULE
3-(3-Morpholin-4-yl-propyl)-3,5,6,7,8,9-hexahydro-10-thia-1,3-diaza-benzo[a]azul
52 55 1 0 0 
SMALL
USER_CHARGES


@<TRIPOS>ATOM
  1 S       -0.7160    -0.3760    -1.2870 S.3   1 <1>  -0.0800 
  2 C        0.7790     0.4810    -1.5480 C.ar  1 <1>   0.2970 
  3 C       -1.0980     0.6330     0.0970 C.2   1 <1>  -0.1400 
  4 N        1.6180     0.1270    -2.5300 N.ar  1 <1>  -0.5670 
  5 C        0.9450     1.5070    -0.6480 C.ar  1 <1>   0.0000 
  6 C       -0.1310     1.5390     0.3280 C.2   1 <1>  -0.1810 
  7 C       -2.4070     0.3640     0.8130 C.3   1 <1>   0.0200 
  8 C        2.6830     0.8480    -2.6140 C.ar  1 <1>   0.5210 
  9 C        2.0870     2.3210    -0.8570 C.ar  1 <1>   0.4610 
 10 C       -0.2340     2.4530     1.5440 C.3   1 <1>   0.0210 
 11 C       -3.2740     1.6310     0.8520 C.3   1 <1>  -0.1600 
 12 N        2.9810     1.9180    -1.8040 N.ar  1 <1>  -0.2100 
 13 N        2.2720     3.4720    -0.1840 N.pl3 1 <1>  -0.9000 
 14 C       -1.4440     3.3910     1.4380 C.3   1 <1>  -0.1600 
 15 C       -2.7780     2.7210     1.8200 C.3   1 <1>  -0.1600 
 16 C        4.2880     2.6060    -2.0140 C.3   1 <1>   0.3280 
 17 C        5.3360     2.1070    -0.9970 C.3   1 <1>  -0.1600 
 18 C        6.7010     2.7880    -1.1860 C.3   1 <1>   0.3430 
 19 N        7.6370     2.4110    -0.0900 N.4   1 <1>  -0.9590 
 20 C        8.8470     3.3090    -0.0240 C.3   1 <1>   0.3430 
 21 C        8.0950     0.9720    -0.0830 C.3   1 <1>   0.3430 
 22 C        9.7460     2.9450     1.1810 C.3   1 <1>   0.1200 
 23 C        9.0570     0.6970     1.0970 C.3   1 <1>   0.1200 
 24 O        9.2230     1.8480     1.8810 O.3   1 <1>  -0.5600 
 25 H       -2.2150     0.0090     1.8090 H     1 <1>   0.0800 
 26 H       -2.9440    -0.4070     0.2880 H     1 <1>   0.0800 
 27 H        3.3920     0.5880    -3.3830 H     1 <1>   0.1500 
 28 H        0.6570     3.0250     1.6940 H     1 <1>   0.0800 
 29 H       -0.3410     1.8430     2.4250 H     1 <1>   0.0800 
 30 H       -4.2650     1.3430     1.1590 H     1 <1>   0.0800 
 31 H       -3.3560     2.0380    -0.1410 H     1 <1>   0.0800 
 32 H        3.0040     4.1730    -0.3070 H     1 <1>   0.4000 
 33 H        1.5470     3.8070     0.4640 H     1 <1>   0.4000 
 34 H       -1.5100     3.7990     0.4440 H     1 <1>   0.0800 
 35 H       -1.2910     4.2140     2.1150 H     1 <1>   0.0800 
 36 H       -2.7040     2.3100     2.8130 H     1 <1>   0.0800 
 37 H       -3.5310     3.4900     1.8580 H     1 <1>   0.0800 
 38 H        4.1530     3.6710    -1.9230 H     1 <1>   0.0800 
 39 H        4.6340     2.4180    -3.0180 H     1 <1>   0.0800 
 40 H        5.4510     1.0440    -1.1110 H     1 <1>   0.0800 
 41 H        4.9790     2.3160    -0.0030 H     1 <1>   0.0800 
 42 H        6.5660     3.8580    -1.1770 H     1 <1>   0.0800 
 43 H        7.1280     2.5140    -2.1390 H     1 <1>   0.0800 
 44 H        7.1960     2.5400     0.8360 H     1 <1>   0.4500 
 45 H        8.5440     4.3390     0.0690 H     1 <1>   0.0800 
 46 H        9.4250     3.2220    -0.9300 H     1 <1>   0.0800 
 47 H        8.6000     0.7370    -1.0060 H     1 <1>   0.0800 
 48 H        7.2500     0.3110     0.0040 H     1 <1>   0.0800 
 49 H        9.8060     3.7730     1.8660 H     1 <1>   0.0800 
 50 H       10.7450     2.7060     0.8570 H     1 <1>   0.0800 
 51 H       10.0220     0.3780     0.7420 H     1 <1>   0.0800 
 52 H        8.6610    -0.0780     1.7310 H     1 <1>   0.0800 
@<TRIPOS>BOND
  1   1   2  1   
  2   1   3  1   
  3   2   4  ar  
  4   2   5  ar  
  5   3   6  2   
  6   3   7  1   
  7   4   8  ar  
  8   5   6  1   
  9   5   9  ar  
 10   6  10  1   
 11   7  11  1   
 12   7  25  1   
 13   7  26  1   
 14   8  12  ar  
 15   8  27  1   
 16   9  12  ar  
 17   9  13  1   
 18  10  14  1   
 19  10  28  1   
 20  10  29  1   
 21  11  15  1   
 22  11  30  1   
 23  11  31  1   
 24  12  16  1   
 25  13  32  1   
 26  13  33  1   
 27  14  15  1   
 28  14  34  1   
 29  14  35  1   
 30  15  36  1   
 31  15  37  1   
 32  16  17  1   
 33  16  38  1   
 34  16  39  1   
 35  17  18  1   
 36  17  40  1   
 37  17  41  1   
 38  18  19  1   
 39  18  42  1   
 40  18  43  1   
 41  19  20  1   
 42  19  21  1   
 43  19  44  1   
 44  20  22  1   
 45  20  45  1   
 46  20  46  1   
 47  21  23  1   
 48  21  47  1   
 49  21  48  1   
 50  22  24  1   
 51  22  49  1   
 52  22  50  1   
 53  23  24  1   
 54  23  51  1   
 55  23  52  1   
@<TRIPOS>SUBSTRUCTURE
  1 ****   9 GROUP 4 **** **** 0

# MOE 2024.06 (io_trps.svl 2023.06)
