@<TRIPOS>MOLECULE
1-Benzo[1,3]dioxol-5-ylmethyl-4-(3-chloro-4-methoxy-benzenesulfonyl)-piperazine
50 53 1 0 0 
SMALL
USER_CHARGES


@<TRIPOS>ATOM
  1 CL       1.4710    -0.7210    -2.6290 Cl    1 <1>  -0.1770 
  2 C        2.4600    -1.1990    -1.2670 C.ar  1 <1>   0.1770 
  3 C        2.6250    -2.5390    -0.9330 C.ar  1 <1>   0.0820 
  4 C        3.0870    -0.2060    -0.5400 C.ar  1 <1>  -0.1500 
  5 O        2.0360    -3.5370    -1.6250 O.3   1 <1>  -0.3630 
  6 C        3.4440    -2.8670     0.1340 C.ar  1 <1>  -0.1500 
  7 C        3.9110    -0.5230     0.5350 C.ar  1 <1>  -0.0090 
  8 C        0.6610    -3.7490    -1.3940 C.3   1 <1>   0.0400 
  9 C        4.0750    -1.8680     0.8580 C.ar  1 <1>  -0.1500 
 10 S        4.7570     0.7820     1.4650 S.o2  1 <1>   1.4470 
 11 O        3.8060     1.7830     1.8870 O.2   1 <1>  -0.6500 
 12 O        5.6920     0.2220     2.4140 O.2   1 <1>  -0.6500 
 13 N        5.7260     1.5320     0.2850 N.am  1 <1>  -0.8490 
 14 C        6.8730     0.6930    -0.1150 C.3   1 <1>   0.1960 
 15 C        6.1740     2.8600     0.7480 C.3   1 <1>   0.1960 
 16 C        7.7270     1.3760    -1.2070 C.3   1 <1>   0.3430 
 17 C        7.0230     3.5860    -0.3160 C.3   1 <1>   0.3430 
 18 N        8.1840     2.7490    -0.7930 N.4   1 <1>  -0.9590 
 19 C        8.9440     3.4320    -1.8770 C.3   1 <1>   0.4860 
 20 C        9.5080     4.7260    -1.3250 C.ar  1 <1>  -0.1440 
 21 C       10.5700     4.6920    -0.4240 C.ar  1 <1>  -0.1500 
 22 C        8.9610     5.9510    -1.7140 C.ar  1 <1>  -0.1500 
 23 C       11.0400     5.8910     0.0720 C.ar  1 <1>   0.0820 
 24 C        9.4530     7.1460    -1.2040 C.ar  1 <1>  -0.1500 
 25 O       12.0330     6.0900     0.9430 O.3   1 <1>  -0.3620 
 26 C       10.4980     7.0840    -0.3050 C.ar  1 <1>   0.0820 
 27 C       12.1450     7.5030     1.1200 C.3   1 <1>   0.4000 
 28 O       11.1260     8.0890     0.3110 O.3   1 <1>  -0.3620 
 29 H        2.9320     0.8230    -0.8150 H     1 <1>   0.1500 
 30 H        3.5830    -3.9030     0.3910 H     1 <1>   0.1500 
 31 H        0.3510    -4.5980    -1.9750 H     1 <1>   0.0800 
 32 H        0.1090    -2.8780    -1.6970 H     1 <1>   0.0800 
 33 H        0.5100    -3.9430    -0.3460 H     1 <1>   0.0800 
 34 H        4.7030    -2.1430     1.6900 H     1 <1>   0.1500 
 35 H        6.5120    -0.2470    -0.4980 H     1 <1>   0.0800 
 36 H        7.4970     0.4810     0.7370 H     1 <1>   0.0800 
 37 H        6.7400     2.7610     1.6610 H     1 <1>   0.0800 
 38 H        5.3160     3.4760     0.9650 H     1 <1>   0.0800 
 39 H        7.1310     1.4470    -2.1020 H     1 <1>   0.0800 
 40 H        8.5800     0.7540    -1.4260 H     1 <1>   0.0800 
 41 H        7.3840     4.5140     0.0990 H     1 <1>   0.0800 
 42 H        6.3830     3.8270    -1.1480 H     1 <1>   0.0800 
 43 H        8.8290     2.6580     0.0030 H     1 <1>   0.4500 
 44 H        8.2990     3.6380    -2.7150 H     1 <1>   0.0800 
 45 H        9.7550     2.8070    -2.2150 H     1 <1>   0.0800 
 46 H       11.0400     3.7800    -0.1040 H     1 <1>   0.1500 
 47 H        8.1490     5.9940    -2.4210 H     1 <1>   0.1500 
 48 H        9.0470     8.1000    -1.4910 H     1 <1>   0.1500 
 49 H       13.1100     7.8350     0.7800 H     1 <1>   0.0800 
 50 H       11.9780     7.7540     2.1520 H     1 <1>   0.0800 
@<TRIPOS>BOND
  1   1   2  1   
  2   2   3  ar  
  3   2   4  ar  
  4   3   5  1   
  5   3   6  ar  
  6   4   7  ar  
  7   4  29  1   
  8   5   8  1   
  9   6   9  ar  
 10   6  30  1   
 11   7   9  ar  
 12   7  10  1   
 13   8  31  1   
 14   8  32  1   
 15   8  33  1   
 16   9  34  1   
 17  10  11  2   
 18  10  12  2   
 19  10  13  am  
 20  13  14  1   
 21  13  15  1   
 22  14  16  1   
 23  14  35  1   
 24  14  36  1   
 25  15  17  1   
 26  15  37  1   
 27  15  38  1   
 28  16  18  1   
 29  16  39  1   
 30  16  40  1   
 31  17  18  1   
 32  17  41  1   
 33  17  42  1   
 34  18  19  1   
 35  18  43  1   
 36  19  20  1   
 37  19  44  1   
 38  19  45  1   
 39  20  21  ar  
 40  20  22  ar  
 41  21  23  ar  
 42  21  46  1   
 43  22  24  ar  
 44  22  47  1   
 45  23  25  1   
 46  23  26  ar  
 47  24  26  ar  
 48  24  48  1   
 49  25  27  1   
 50  26  28  1   
 51  27  28  1   
 52  27  49  1   
 53  27  50  1   
@<TRIPOS>SUBSTRUCTURE
  1 ****  13 GROUP 4 **** **** 0

# MOE 2024.06 (io_trps.svl 2023.06)
