@<TRIPOS>MOLECULE
3-(5-Isopropyl-[1,2,4]oxadiazol-3-yl)-2-methoxy-8-methyl-quinoline
38 40 1 0 0 
SMALL
USER_CHARGES


@<TRIPOS>ATOM
  1 O       -0.8530     0.4210     1.1750 O.3   1 <1>  -0.0190 
  2 N       -1.7570    -0.4970     1.3080 N.2   1 <1>  -0.4100 
  3 C       -1.3000     1.1710     0.2000 C.2   1 <1>   0.2980 
  4 C       -2.6730    -0.2790     0.4310 C.2   1 <1>   0.4620 
  5 N       -2.4090     0.8090    -0.2990 N.2   1 <1>  -0.5650 
  6 C       -0.4800     2.3790    -0.2420 C.3   1 <1>   0.1000 
  7 C       -3.8840    -1.0420     0.2290 C.ar  1 <1>   0.0540 
  8 C        0.8970     1.9510    -0.7700 C.3   1 <1>  -0.2400 
  9 C       -0.3230     3.3920     0.9010 C.3   1 <1>  -0.2400 
 10 C       -3.8850    -2.4600     0.2070 C.ar  1 <1>   0.3920 
 11 C       -5.0870    -0.4120     0.0460 C.ar  1 <1>  -0.1500 
 12 O       -2.6960    -3.0860     0.3270 O.3   1 <1>  -0.3620 
 13 N       -4.9530    -3.1980     0.0580 N.ar  1 <1>  -0.6200 
 14 C       -6.2550    -1.1670    -0.1270 C.ar  1 <1>   0.0000 
 15 C       -2.5870    -4.4950     0.3320 C.3   1 <1>   0.0400 
 16 C       -6.1490    -2.5750    -0.1070 C.ar  1 <1>   0.3100 
 17 C       -7.5170    -0.5720    -0.3130 C.ar  1 <1>  -0.1500 
 18 C       -7.3250    -3.3430    -0.2700 C.ar  1 <1>  -0.1440 
 19 C       -8.6380    -1.3370    -0.4700 C.ar  1 <1>  -0.1500 
 20 C       -8.5410    -2.7310    -0.4470 C.ar  1 <1>  -0.1500 
 21 C       -7.2450    -4.8650    -0.2500 C.3   1 <1>  -0.0970 
 22 H       -1.0130     2.8580    -1.0450 H     1 <1>   0.0800 
 23 H        1.4710     1.4790     0.0080 H     1 <1>   0.0800 
 24 H        1.4410     2.8040    -1.1330 H     1 <1>   0.0800 
 25 H        0.7770     1.2520    -1.5790 H     1 <1>   0.0800 
 26 H        0.2200     2.9560     1.7220 H     1 <1>   0.0800 
 27 H       -1.2920     3.6980     1.2550 H     1 <1>   0.0800 
 28 H        0.2070     4.2630     0.5600 H     1 <1>   0.0800 
 29 H       -5.1480     0.6620     0.0360 H     1 <1>   0.1500 
 30 H       -1.5500    -4.7530     0.4490 H     1 <1>   0.0800 
 31 H       -2.9630    -4.8760    -0.6010 H     1 <1>   0.0800 
 32 H       -3.1610    -4.8830     1.1560 H     1 <1>   0.0800 
 33 H       -7.5850     0.5020    -0.3290 H     1 <1>   0.1500 
 34 H       -9.6040    -0.8820    -0.6110 H     1 <1>   0.1500 
 35 H       -9.4400    -3.3090    -0.5720 H     1 <1>   0.1500 
 36 H       -6.5990    -5.2060    -1.0390 H     1 <1>   0.0800 
 37 H       -8.2140    -5.3100    -0.3830 H     1 <1>   0.0800 
 38 H       -6.8410    -5.1960     0.6910 H     1 <1>   0.0800 
@<TRIPOS>BOND
  1   1   2  1   
  2   1   3  1   
  3   2   4  2   
  4   3   5  2   
  5   3   6  1   
  6   4   5  1   
  7   4   7  1   
  8   6   8  1   
  9   6   9  1   
 10   6  22  1   
 11   7  10  ar  
 12   7  11  ar  
 13   8  23  1   
 14   8  24  1   
 15   8  25  1   
 16   9  26  1   
 17   9  27  1   
 18   9  28  1   
 19  10  12  1   
 20  10  13  ar  
 21  11  14  ar  
 22  11  29  1   
 23  12  15  1   
 24  13  16  ar  
 25  14  16  ar  
 26  14  17  ar  
 27  15  30  1   
 28  15  31  1   
 29  15  32  1   
 30  16  18  ar  
 31  17  19  ar  
 32  17  33  1   
 33  18  20  ar  
 34  18  21  1   
 35  19  20  ar  
 36  19  34  1   
 37  20  35  1   
 38  21  36  1   
 39  21  37  1   
 40  21  38  1   
@<TRIPOS>SUBSTRUCTURE
  1 ****   7 GROUP 4 **** **** 0

# MOE 2024.06 (io_trps.svl 2023.06)
