@<TRIPOS>MOLECULE
N-(4-Ethoxy-phenyl)-4-fluoro-N-(2-oxo-2-piperidin-1-yl-ethyl)-benzenesulfonamide
54 56 1 0 0 
SMALL
USER_CHARGES


@<TRIPOS>ATOM
  1 S       -0.2370     1.1300     1.8660 S.o2  1 <1>   1.4470 
  2 O       -1.3200     0.8700     2.7860 O.2   1 <1>  -0.6500 
  3 O        1.1070     1.2740     2.3800 O.2   1 <1>  -0.6500 
  4 N       -0.5870     2.6230     1.0560 N.am  1 <1>  -0.6930 
  5 C       -0.2690    -0.0910     0.5240 C.ar  1 <1>  -0.0090 
  6 C       -1.8910     3.0420     0.7940 C.ar  1 <1>   0.1990 
  7 C        0.5700     3.3320     0.4250 C.3   1 <1>   0.2570 
  8 C        0.8590    -0.8550     0.2250 C.ar  1 <1>  -0.1500 
  9 C       -1.4200    -0.2900    -0.2360 C.ar  1 <1>  -0.1500 
 10 C       -2.7560     3.3430     1.8390 C.ar  1 <1>  -0.1500 
 11 C       -2.3600     3.1710    -0.5100 C.ar  1 <1>  -0.1500 
 12 C        1.2900     2.5310    -0.6770 C.2   1 <1>   0.5690 
 13 C        0.8510    -1.7800    -0.8060 C.ar  1 <1>  -0.1500 
 14 C       -1.4490    -1.2080    -1.2730 C.ar  1 <1>  -0.1500 
 15 C       -4.0540     3.7570     1.5990 C.ar  1 <1>  -0.1500 
 16 C       -3.6560     3.5850    -0.7570 C.ar  1 <1>  -0.1500 
 17 O        0.6650     2.3370    -1.6950 O.2   1 <1>  -0.5700 
 18 N        2.5760     2.0520    -0.5460 N.am  1 <1>  -0.6600 
 19 C       -0.3070    -1.9370    -1.5400 C.ar  1 <1>   0.1900 
 20 C       -4.5130     3.8790     0.2910 C.ar  1 <1>   0.0830 
 21 C        3.1490     1.2150    -1.6510 C.3   1 <1>   0.1400 
 22 C        3.4850     2.3310     0.6130 C.3   1 <1>   0.1400 
 23 F       -0.3240    -2.8050    -2.5140 F     1 <1>  -0.1900 
 24 O       -5.7720     4.2730    -0.0400 O.3   1 <1>  -0.3620 
 25 C        4.2650     0.2990    -1.1380 C.3   1 <1>  -0.1600 
 26 C        4.9430     2.4020     0.1480 C.3   1 <1>  -0.1600 
 27 C       -6.7290     4.5400     0.9580 C.3   1 <1>   0.1200 
 28 C        5.4170     1.0880    -0.4940 C.3   1 <1>  -0.1600 
 29 C       -8.0340     4.9210     0.2680 C.3   1 <1>  -0.2400 
 30 H        1.2500     3.6140     1.2020 H     1 <1>   0.0800 
 31 H        0.2140     4.2430    -0.0220 H     1 <1>   0.0800 
 32 H        1.7560    -0.7180     0.8050 H     1 <1>   0.1500 
 33 H       -2.3050     0.2840    -0.0160 H     1 <1>   0.1500 
 34 H       -2.4050     3.2480     2.8510 H     1 <1>   0.1500 
 35 H       -1.7160     2.9400    -1.3370 H     1 <1>   0.1500 
 36 H        1.7210    -2.3660    -1.0390 H     1 <1>   0.1500 
 37 H       -2.3350    -1.3560    -1.8630 H     1 <1>   0.1500 
 38 H       -4.6860     3.9750     2.4390 H     1 <1>   0.1500 
 39 H       -4.0140     3.6820    -1.7670 H     1 <1>   0.1500 
 40 H        3.5360     1.8680    -2.4150 H     1 <1>   0.0800 
 41 H        2.3710     0.6130    -2.0910 H     1 <1>   0.0800 
 42 H        3.3810     1.5460     1.3430 H     1 <1>   0.0800 
 43 H        3.2350     3.2650     1.0800 H     1 <1>   0.0800 
 44 H        4.6440    -0.2950    -1.9510 H     1 <1>   0.0800 
 45 H        3.8430    -0.3770    -0.4160 H     1 <1>   0.0800 
 46 H        5.5770     2.6410     0.9840 H     1 <1>   0.0800 
 47 H        5.0310     3.2040    -0.5640 H     1 <1>   0.0800 
 48 H       -6.3700     5.3520     1.5670 H     1 <1>   0.0800 
 49 H       -6.8580     3.6530     1.5540 H     1 <1>   0.0800 
 50 H        6.1600     1.3170    -1.2390 H     1 <1>   0.0800 
 51 H        5.8850     0.4670     0.2500 H     1 <1>   0.0800 
 52 H       -7.8900     5.7980    -0.3370 H     1 <1>   0.0800 
 53 H       -8.7870     5.1320     1.0050 H     1 <1>   0.0800 
 54 H       -8.3750     4.1090    -0.3500 H     1 <1>   0.0800 
@<TRIPOS>BOND
  1   1   2  2   
  2   1   3  2   
  3   1   4  am  
  4   1   5  1   
  5   4   6  1   
  6   4   7  1   
  7   5   8  ar  
  8   5   9  ar  
  9   6  10  ar  
 10   6  11  ar  
 11   7  12  1   
 12   7  30  1   
 13   7  31  1   
 14   8  13  ar  
 15   8  32  1   
 16   9  14  ar  
 17   9  33  1   
 18  10  15  ar  
 19  10  34  1   
 20  11  16  ar  
 21  11  35  1   
 22  12  17  2   
 23  12  18  am  
 24  13  19  ar  
 25  13  36  1   
 26  14  19  ar  
 27  14  37  1   
 28  15  20  ar  
 29  15  38  1   
 30  16  20  ar  
 31  16  39  1   
 32  18  21  1   
 33  18  22  1   
 34  19  23  1   
 35  20  24  1   
 36  21  25  1   
 37  21  40  1   
 38  21  41  1   
 39  22  26  1   
 40  22  42  1   
 41  22  43  1   
 42  24  27  1   
 43  25  28  1   
 44  25  44  1   
 45  25  45  1   
 46  26  28  1   
 47  26  46  1   
 48  26  47  1   
 49  27  29  1   
 50  27  48  1   
 51  27  49  1   
 52  28  50  1   
 53  28  51  1   
 54  29  52  1   
 55  29  53  1   
 56  29  54  1   
@<TRIPOS>SUBSTRUCTURE
  1 ****   4 GROUP 4 **** **** 0

# MOE 2024.06 (io_trps.svl 2023.06)
