@<TRIPOS>MOLECULE
4-(3,4-Dihydro-1H-isoquinolin-2-ylmethyl)-N-(3-morpholin-4-yl-propyl)-benzamide
62 65 1 0 0 
SMALL
USER_CHARGES


@<TRIPOS>ATOM
  1 O        1.4390     3.9640     0.6420 O.2   1 <1>  -0.5700 
  2 C        0.8500     3.2990     1.4700 C.2   1 <1>   0.5440 
  3 N        1.5950     2.5700     2.3560 N.am  1 <1>  -0.7300 
  4 C       -0.6020     3.2550     1.4830 C.ar  1 <1>   0.0860 
  5 C        2.8860     2.9980     2.9690 C.3   1 <1>   0.1400 
  6 C       -1.3160     2.1200     1.8710 C.ar  1 <1>  -0.1500 
  7 C       -1.3440     4.3720     1.1000 C.ar  1 <1>  -0.1500 
  8 C        4.0600     3.1930     1.9930 C.3   1 <1>  -0.1600 
  9 C       -2.6990     2.1040     1.8800 C.ar  1 <1>  -0.1500 
 10 C       -2.7260     4.3650     1.1080 C.ar  1 <1>  -0.1500 
 11 C        4.2960     2.0310     1.0250 C.3   1 <1>   0.3430 
 12 C       -3.4170     3.2270     1.4950 C.ar  1 <1>  -0.1440 
 13 N        3.4270     2.1950    -0.1610 N.4   1 <1>  -0.9590 
 14 C       -4.9350     3.2150     1.4990 C.3   1 <1>   0.4860 
 15 C        3.0510     0.8970    -0.8040 C.3   1 <1>   0.3430 
 16 C        3.9720     3.1600    -1.1730 C.3   1 <1>   0.3430 
 17 N       -5.4180     3.2290     0.0950 N.4   1 <1>  -0.9590 
 18 C        2.1480     1.1280    -2.0310 C.3   1 <1>   0.1200 
 19 C        3.0230     3.2860    -2.3800 C.3   1 <1>   0.1200 
 20 C       -6.8860     3.4560     0.0100 C.3   1 <1>   0.4860 
 21 C       -5.0390     2.0020    -0.6660 C.3   1 <1>   0.3430 
 22 O        2.7520     2.0230    -2.9210 O.3   1 <1>  -0.5600 
 23 C       -7.3160     3.5340    -1.4450 C.ar  1 <1>  -0.1430 
 24 C       -5.2570     2.2300    -2.1640 C.3   1 <1>  -0.0170 
 25 C       -6.5640     2.9510    -2.4610 C.ar  1 <1>  -0.1430 
 26 C       -8.4950     4.1950    -1.7590 C.ar  1 <1>  -0.1500 
 27 C       -6.9990     3.0370    -3.7740 C.ar  1 <1>  -0.1500 
 28 C       -8.9230     4.2770    -3.0710 C.ar  1 <1>  -0.1500 
 29 C       -8.1750     3.6980    -4.0790 C.ar  1 <1>  -0.1500 
 30 H        1.0470     2.0120     3.0190 H     1 <1>   0.3700 
 31 H        3.1690     2.2560     3.6980 H     1 <1>   0.0800 
 32 H        2.7230     3.9200     3.5030 H     1 <1>   0.0800 
 33 H       -0.7860     1.2320     2.1690 H     1 <1>   0.1500 
 34 H       -0.8210     5.2650     0.7960 H     1 <1>   0.1500 
 35 H        4.9450     3.2950     2.5950 H     1 <1>   0.0800 
 36 H        3.9490     4.1240     1.4670 H     1 <1>   0.0800 
 37 H       -3.2090     1.2070     2.1940 H     1 <1>   0.1500 
 38 H       -3.2490     5.2610     0.8140 H     1 <1>   0.1500 
 39 H        4.0720     1.1040     1.5270 H     1 <1>   0.0800 
 40 H        5.3280     2.0100     0.7150 H     1 <1>   0.0800 
 41 H        2.5590     2.6460     0.1970 H     1 <1>   0.4500 
 42 H       -5.2920     4.0870     2.0230 H     1 <1>   0.0800 
 43 H       -5.2970     2.3380     2.0110 H     1 <1>   0.0800 
 44 H        2.5350     0.2720    -0.0950 H     1 <1>   0.0800 
 45 H        3.9390     0.3780    -1.1260 H     1 <1>   0.0800 
 46 H        4.9330     2.8240    -1.5230 H     1 <1>   0.0800 
 47 H        4.0970     4.1320    -0.7240 H     1 <1>   0.0800 
 48 H       -4.9730     4.0210    -0.3850 H     1 <1>   0.4500 
 49 H        1.1930     1.5260    -1.7370 H     1 <1>   0.0800 
 50 H        1.9900     0.2030    -2.5560 H     1 <1>   0.0800 
 51 H        3.4800     3.8820    -3.1510 H     1 <1>   0.0800 
 52 H        2.0950     3.7500    -2.0920 H     1 <1>   0.0800 
 53 H       -7.1470     4.3770     0.5050 H     1 <1>   0.0800 
 54 H       -7.4140     2.6480     0.4900 H     1 <1>   0.0800 
 55 H       -5.6460     1.1730    -0.3410 H     1 <1>   0.0800 
 56 H       -4.0040     1.7540    -0.4960 H     1 <1>   0.0800 
 57 H       -5.2450     1.2790    -2.6670 H     1 <1>   0.0800 
 58 H       -4.4400     2.8120    -2.5550 H     1 <1>   0.0800 
 59 H       -9.0970     4.6530    -0.9920 H     1 <1>   0.1500 
 60 H       -6.4280     2.5930    -4.5710 H     1 <1>   0.1500 
 61 H       -9.8380     4.7910    -3.3120 H     1 <1>   0.1500 
 62 H       -8.5090     3.7610    -5.1010 H     1 <1>   0.1500 
@<TRIPOS>BOND
  1   1   2  2   
  2   2   3  am  
  3   2   4  1   
  4   3   5  1   
  5   3  30  1   
  6   4   6  ar  
  7   4   7  ar  
  8   5   8  1   
  9   5  31  1   
 10   5  32  1   
 11   6   9  ar  
 12   6  33  1   
 13   7  10  ar  
 14   7  34  1   
 15   8  11  1   
 16   8  35  1   
 17   8  36  1   
 18   9  12  ar  
 19   9  37  1   
 20  10  12  ar  
 21  10  38  1   
 22  11  13  1   
 23  11  39  1   
 24  11  40  1   
 25  12  14  1   
 26  13  15  1   
 27  13  16  1   
 28  13  41  1   
 29  14  17  1   
 30  14  42  1   
 31  14  43  1   
 32  15  18  1   
 33  15  44  1   
 34  15  45  1   
 35  16  19  1   
 36  16  46  1   
 37  16  47  1   
 38  17  20  1   
 39  17  21  1   
 40  17  48  1   
 41  18  22  1   
 42  18  49  1   
 43  18  50  1   
 44  19  22  1   
 45  19  51  1   
 46  19  52  1   
 47  20  23  1   
 48  20  53  1   
 49  20  54  1   
 50  21  24  1   
 51  21  55  1   
 52  21  56  1   
 53  23  25  ar  
 54  23  26  ar  
 55  24  25  1   
 56  24  57  1   
 57  24  58  1   
 58  25  27  ar  
 59  26  28  ar  
 60  26  59  1   
 61  27  29  ar  
 62  27  60  1   
 63  28  29  ar  
 64  28  61  1   
 65  29  62  1   
@<TRIPOS>SUBSTRUCTURE
  1 ****   7 GROUP 4 **** **** 0

# MOE 2024.06 (io_trps.svl 2023.06)
