@<TRIPOS>MOLECULE
2,3-Dihydro-benzo[1,4]dioxine-6-carboxylic acid [2-(4-isobutyryl-piperazin-1-yl)
57 60 1 0 0 
SMALL
USER_CHARGES


@<TRIPOS>ATOM
  1 O        0.0390    -0.0190     0.6290 O.2   1 <1>  -0.5700 
  2 C       -0.2840     1.1500     0.5360 C.2   1 <1>   0.5440 
  3 N        0.6280     2.0840     0.1120 N.am  1 <1>  -0.5470 
  4 C       -1.6280     1.5690     0.8920 C.ar  1 <1>   0.0860 
  5 C        1.9580     2.0410    -0.3380 C.ar  1 <1>   0.1170 
  6 C       -2.1890     2.7560     0.4100 C.ar  1 <1>  -0.1500 
  7 C       -2.4180     0.7880     1.7430 C.ar  1 <1>  -0.1500 
  8 C        2.5620     3.2770    -0.6120 C.ar  1 <1>   0.1000 
  9 C        2.6810     0.8700    -0.5250 C.ar  1 <1>  -0.1500 
 10 C       -3.4650     3.1470     0.7700 C.ar  1 <1>   0.0830 
 11 C       -3.7000     1.1650     2.1030 C.ar  1 <1>  -0.1500 
 12 N        1.8410     4.4760    -0.4330 N.pl3 1 <1>  -0.8380 
 13 C        3.8760     3.3020    -1.0630 C.ar  1 <1>  -0.1500 
 14 C        3.9900     0.9120    -0.9750 C.ar  1 <1>  -0.1500 
 15 O       -3.9490     4.3210     0.2900 O.3   1 <1>  -0.3630 
 16 C       -4.2320     2.3430     1.6140 C.ar  1 <1>   0.0830 
 17 C        2.3130     5.3200     0.7140 C.3   1 <1>   0.2090 
 18 C        1.5370     5.2320    -1.6950 C.3   1 <1>   0.2090 
 19 C        4.5880     2.1290    -1.2440 C.ar  1 <1>  -0.1500 
 20 C       -5.1130     4.8390     0.9110 C.3   1 <1>   0.1200 
 21 O       -5.4940     2.6900     1.9570 O.3   1 <1>  -0.3630 
 22 C        1.7950     6.7690     0.6450 C.3   1 <1>   0.1400 
 23 C        2.3330     6.5440    -1.8230 C.3   1 <1>   0.1400 
 24 C       -6.1140     3.7110     1.1990 C.3   1 <1>   0.1200 
 25 N        2.1660     7.4490    -0.6390 N.am  1 <1>  -0.6600 
 26 C        2.4110     8.7940    -0.7800 C.2   1 <1>   0.5690 
 27 O        2.8400     9.2360    -1.8210 O.2   1 <1>  -0.5700 
 28 C        2.1570     9.7780     0.3760 C.3   1 <1>  -0.0190 
 29 C        1.6040    11.1300    -0.1120 C.3   1 <1>  -0.2400 
 30 C        3.4400    10.0140     1.1920 C.3   1 <1>  -0.2400 
 31 H        0.3290     3.0610     0.1470 H     1 <1>   0.3700 
 32 H       -1.6370     3.3890    -0.2590 H     1 <1>   0.1500 
 33 H       -2.0130    -0.1340     2.1270 H     1 <1>   0.1500 
 34 H        2.2310    -0.0830    -0.3230 H     1 <1>   0.1500 
 35 H       -4.2910     0.5490     2.7560 H     1 <1>   0.1500 
 36 H        4.3460     4.2440    -1.2720 H     1 <1>   0.1500 
 37 H        4.5380    -0.0040    -1.1140 H     1 <1>   0.1500 
 38 H        3.3890     5.3370     0.7340 H     1 <1>   0.0800 
 39 H        1.9780     4.8690     1.6320 H     1 <1>   0.0800 
 40 H        0.4860     5.4620    -1.7180 H     1 <1>   0.0800 
 41 H        1.7470     4.6100    -2.5490 H     1 <1>   0.0800 
 42 H        5.6060     2.1640    -1.5930 H     1 <1>   0.1500 
 43 H       -5.5430     5.5710     0.2510 H     1 <1>   0.0800 
 44 H       -4.8180     5.3180     1.8270 H     1 <1>   0.0800 
 45 H        2.2030     7.3090     1.4790 H     1 <1>   0.0800 
 46 H        0.7240     6.7600     0.7410 H     1 <1>   0.0800 
 47 H        2.0110     7.0580    -2.7130 H     1 <1>   0.0800 
 48 H        3.3770     6.3150    -1.9410 H     1 <1>   0.0800 
 49 H       -6.4650     3.2780     0.2790 H     1 <1>   0.0800 
 50 H       -6.9530     4.0780     1.7610 H     1 <1>   0.0800 
 51 H        1.4100     9.3620     1.0250 H     1 <1>   0.0800 
 52 H        2.3220    11.6240    -0.7440 H     1 <1>   0.0800 
 53 H        1.3780    11.7710     0.7210 H     1 <1>   0.0800 
 54 H        0.7050    10.9740    -0.6820 H     1 <1>   0.0800 
 55 H        4.1940    10.4630     0.5690 H     1 <1>   0.0800 
 56 H        3.8220     9.0830     1.5690 H     1 <1>   0.0800 
 57 H        3.2440    10.6680     2.0230 H     1 <1>   0.0800 
@<TRIPOS>BOND
  1   1   2  2   
  2   2   3  am  
  3   2   4  1   
  4   3   5  1   
  5   3  31  1   
  6   4   6  ar  
  7   4   7  ar  
  8   5   8  ar  
  9   5   9  ar  
 10   6  10  ar  
 11   6  32  1   
 12   7  11  ar  
 13   7  33  1   
 14   8  12  1   
 15   8  13  ar  
 16   9  14  ar  
 17   9  34  1   
 18  10  15  1   
 19  10  16  ar  
 20  11  16  ar  
 21  11  35  1   
 22  12  17  1   
 23  12  18  1   
 24  13  19  ar  
 25  13  36  1   
 26  14  19  ar  
 27  14  37  1   
 28  15  20  1   
 29  16  21  1   
 30  17  22  1   
 31  17  38  1   
 32  17  39  1   
 33  18  23  1   
 34  18  40  1   
 35  18  41  1   
 36  19  42  1   
 37  20  24  1   
 38  20  43  1   
 39  20  44  1   
 40  21  24  1   
 41  22  25  1   
 42  22  45  1   
 43  22  46  1   
 44  23  25  1   
 45  23  47  1   
 46  23  48  1   
 47  24  49  1   
 48  24  50  1   
 49  25  26  am  
 50  26  27  2   
 51  26  28  1   
 52  28  29  1   
 53  28  30  1   
 54  28  51  1   
 55  29  52  1   
 56  29  53  1   
 57  29  54  1   
 58  30  55  1   
 59  30  56  1   
 60  30  57  1   
@<TRIPOS>SUBSTRUCTURE
  1 ****  12 GROUP 4 **** **** 0

# MOE 2024.06 (io_trps.svl 2023.06)
