@<TRIPOS>MOLECULE
N-Furan-2-ylmethyl-N-(2-hydroxy-7-methyl-quinolin-3-ylmethyl)-butyramide
47 49 1 0 0 
SMALL
USER_CHARGES


@<TRIPOS>ATOM
  1 O        1.4300    -0.2040    -2.3830 O.2   1 <1>  -0.5700 
  2 C        2.0100    -0.2980    -1.3270 C.2   1 <1>   0.5690 
  3 N        2.4580     0.8080    -0.6570 N.am  1 <1>  -0.6600 
  4 C        2.2190    -1.7020    -0.7760 C.3   1 <1>  -0.0990 
  5 C        2.2110     2.1720    -1.1960 C.3   1 <1>   0.2780 
  6 C        3.2390     0.7630     0.6130 C.3   1 <1>   0.3200 
  7 C        1.0960    -2.1120     0.1920 C.3   1 <1>  -0.1600 
  8 C        0.9260     2.7290    -0.6080 C.2   1 <1>  -0.1240 
  9 C        4.7150     0.5290     0.3320 C.2   1 <1>  -0.0400 
 10 C        1.3340    -3.5140     0.7590 C.3   1 <1>  -0.2400 
 11 C        1.0270     3.6210     0.5060 C.2   1 <1>   0.6160 
 12 C       -0.2890     2.3970    -1.1140 C.2   1 <1>  -0.1780 
 13 O        5.5310     0.3940     1.3600 O.3   1 <1>  -0.2800 
 14 C        5.4010     0.4220    -0.8280 C.2   1 <1>  -0.1500 
 15 O        2.0820     3.9610     1.0110 O.2   1 <1>  -0.5700 
 16 N       -0.1250     4.1200     1.0340 N.am  1 <1>  -0.5470 
 17 C       -1.4920     2.9280    -0.5480 C.ar  1 <1>   0.0280 
 18 C        6.7450     0.2020     0.8860 C.2   1 <1>  -0.0100 
 19 C        6.7360     0.2070    -0.4640 C.2   1 <1>  -0.1500 
 20 C       -1.3880     3.8040     0.5450 C.ar  1 <1>   0.1170 
 21 C       -2.7610     2.6120    -1.0330 C.ar  1 <1>  -0.1500 
 22 C       -2.5400     4.3380     1.1180 C.ar  1 <1>  -0.1500 
 23 C       -3.8920     3.1480    -0.4550 C.ar  1 <1>  -0.1500 
 24 C       -3.7880     4.0160     0.6260 C.ar  1 <1>  -0.1440 
 25 C       -5.0490     4.5930     1.2450 C.3   1 <1>  -0.0970 
 26 H        3.1760    -1.7740    -0.2950 H     1 <1>   0.0800 
 27 H        2.2310    -2.3850    -1.6060 H     1 <1>   0.0800 
 28 H        2.1170     2.1250    -2.2670 H     1 <1>   0.0800 
 29 H        3.0490     2.8130    -0.9790 H     1 <1>   0.0800 
 30 H        2.8720    -0.0240     1.2450 H     1 <1>   0.0800 
 31 H        3.1280     1.6860     1.1530 H     1 <1>   0.0800 
 32 H        0.1550    -2.0930    -0.3340 H     1 <1>   0.0800 
 33 H        1.0310    -1.4060     1.0010 H     1 <1>   0.0800 
 34 H        1.3730    -4.2390    -0.0350 H     1 <1>   0.0800 
 35 H        0.5330    -3.7810     1.4260 H     1 <1>   0.0800 
 36 H        2.2600    -3.5480     1.3070 H     1 <1>   0.0800 
 37 H       -0.3870     1.7220    -1.9480 H     1 <1>   0.1500 
 38 H        5.0310     0.4830    -1.8370 H     1 <1>   0.1500 
 39 H       -0.0070     4.7530     1.8220 H     1 <1>   0.3700 
 40 H        7.5580     0.0710     1.5780 H     1 <1>   0.1500 
 41 H        7.5570     0.0780    -1.1450 H     1 <1>   0.1500 
 42 H       -2.8500     1.9410    -1.8680 H     1 <1>   0.1500 
 43 H       -2.4430     5.0070     1.9530 H     1 <1>   0.1500 
 44 H       -4.8630     2.8930    -0.8430 H     1 <1>   0.1500 
 45 H       -4.8130     5.2450     2.0660 H     1 <1>   0.0800 
 46 H       -5.6750     3.7970     1.6090 H     1 <1>   0.0800 
 47 H       -5.5950     5.1540     0.5080 H     1 <1>   0.0800 
@<TRIPOS>BOND
  1   1   2  2   
  2   2   3  am  
  3   2   4  1   
  4   3   5  1   
  5   3   6  1   
  6   4   7  1   
  7   4  26  1   
  8   4  27  1   
  9   5   8  1   
 10   5  28  1   
 11   5  29  1   
 12   6   9  1   
 13   6  30  1   
 14   6  31  1   
 15   7  10  1   
 16   7  32  1   
 17   7  33  1   
 18   8  11  1   
 19   8  12  2   
 20   9  13  1   
 21   9  14  2   
 22  10  34  1   
 23  10  35  1   
 24  10  36  1   
 25  11  15  2   
 26  11  16  am  
 27  12  17  1   
 28  12  37  1   
 29  13  18  1   
 30  14  19  1   
 31  14  38  1   
 32  16  20  1   
 33  16  39  1   
 34  17  20  ar  
 35  17  21  ar  
 36  18  19  2   
 37  18  40  1   
 38  19  41  1   
 39  20  22  ar  
 40  21  23  ar  
 41  21  42  1   
 42  22  24  ar  
 43  22  43  1   
 44  23  24  ar  
 45  23  44  1   
 46  24  25  1   
 47  25  45  1   
 48  25  46  1   
 49  25  47  1   
@<TRIPOS>SUBSTRUCTURE
  1 ****   8 GROUP 4 **** **** 0

# MOE 2024.06 (io_trps.svl 2023.06)
