@<TRIPOS>MOLECULE
8-Azepan-1-yl-7-[2-(4-methoxy-phenyl)-ethyl]-3-methyl-3,7-dihydro-purine-2,6-dio
57 60 1 0 0 
SMALL
USER_CHARGES


@<TRIPOS>ATOM
  1 O        0.8840     0.5860     0.9290 O.2   1 <1>  -0.5740 
  2 C        1.9550     1.1430     0.8920 C.2   1 <1>   0.6870 
  3 N        3.1040     0.5130     0.4390 N.am  1 <1>  -0.4410 
  4 N        2.0270     2.4400     1.3100 N.am  1 <1>  -0.4940 
  5 C        4.2800     1.2490     0.4280 C.2   1 <1>   0.4210 
  6 C        3.0730    -0.9060    -0.0240 C.3   1 <1>   0.0530 
  7 C        3.1770     3.1770     1.3060 C.2   1 <1>   0.7000 
  8 N        5.5050     0.8470     0.0060 N.pl3 1 <1>  -0.7030 
  9 C        4.3740     2.5300     0.8470 C.2   1 <1>   0.2710 
 10 O        3.1310     4.3340     1.6720 O.2   1 <1>  -0.5740 
 11 C        6.3740     1.8470     0.1720 C.cat 1 <1>   1.0690 
 12 N        5.7230     2.9090     0.6850 N.pl3 1 <1>  -0.7670 
 13 N        7.6770     1.7270    -0.1740 N.pl3 1 <1>  -0.5960 
 14 C        6.1570     4.3220     0.8960 C.3   1 <1>   0.3490 
 15 C        8.7630     2.5380     0.4580 C.3   1 <1>   0.1610 
 16 C        8.1080     0.7460    -1.2160 C.3   1 <1>   0.1610 
 17 C        5.9820     5.1310    -0.3890 C.3   1 <1>  -0.0240 
 18 C       10.1180     1.8300     0.5890 C.3   1 <1>  -0.1660 
 19 C        8.4500    -0.6110    -0.5880 C.3   1 <1>  -0.1660 
 20 C        6.6200     6.4930    -0.2040 C.ar  1 <1>  -0.1500 
 21 C       10.0410     0.4090     1.1700 C.3   1 <1>  -0.1660 
 22 C        9.8250    -0.6580     0.0900 C.3   1 <1>  -0.1660 
 23 C        7.8720     6.7640    -0.7360 C.ar  1 <1>  -0.1560 
 24 C        5.9570     7.4740     0.5160 C.ar  1 <1>  -0.1560 
 25 C        8.4610     8.0010    -0.5430 C.ar  1 <1>  -0.1560 
 26 C        6.5450     8.7100     0.7100 C.ar  1 <1>  -0.1560 
 27 C        7.7980     8.9830     0.1870 C.ar  1 <1>   0.0760 
 28 O        8.3040    10.2180     0.4260 O.3   1 <1>  -0.3680 
 29 C        9.5560    10.6100    -0.0930 C.3   1 <1>   0.0330 
 30 H        1.1650     2.8760     1.6320 H     1 <1>   0.3650 
 31 H        2.1150    -1.3560     0.1810 H     1 <1>   0.0730 
 32 H        3.8270    -1.4780     0.4880 H     1 <1>   0.0730 
 33 H        3.2460    -0.9480    -1.0850 H     1 <1>   0.0730 
 34 H        5.7670    -0.0720    -0.3350 H     1 <1>   0.4450 
 35 H        7.1800     4.3760     1.2100 H     1 <1>   0.0730 
 36 H        5.5760     4.7730     1.6840 H     1 <1>   0.0730 
 37 H        8.4590     2.7950     1.4580 H     1 <1>   0.0730 
 38 H        8.8990     3.4490    -0.1020 H     1 <1>   0.0730 
 39 H        8.9530     1.1280    -1.7650 H     1 <1>   0.0730 
 40 H        7.3130     0.6120    -1.9310 H     1 <1>   0.0730 
 41 H        4.9360     5.2540    -0.6080 H     1 <1>   0.0730 
 42 H        6.4500     4.6250    -1.2140 H     1 <1>   0.0730 
 43 H       10.7220     2.4260     1.2500 H     1 <1>   0.0730 
 44 H       10.6320     1.8240    -0.3570 H     1 <1>   0.0730 
 45 H        8.4560    -1.3490    -1.3720 H     1 <1>   0.0730 
 46 H        7.6950    -0.9050     0.1180 H     1 <1>   0.0730 
 47 H        9.2790     0.3440     1.9270 H     1 <1>   0.0730 
 48 H       10.9820     0.1950     1.6490 H     1 <1>   0.0730 
 49 H       10.5960    -0.5650    -0.6580 H     1 <1>   0.0730 
 50 H        9.9480    -1.6290     0.5410 H     1 <1>   0.0730 
 51 H        8.4010     6.0210    -1.3060 H     1 <1>   0.1440 
 52 H        4.9800     7.2890     0.9310 H     1 <1>   0.1440 
 53 H        9.4300     8.1850    -0.9660 H     1 <1>   0.1440 
 54 H        6.0360     9.4750     1.2680 H     1 <1>   0.1440 
 55 H        9.7410    11.6240     0.2120 H     1 <1>   0.0730 
 56 H        9.5220    10.5500    -1.1660 H     1 <1>   0.0730 
 57 H       10.3160     9.9630     0.3070 H     1 <1>   0.0730 
@<TRIPOS>BOND
  1   1   2  2   
  2   2   3  am  
  3   2   4  am  
  4   3   5  1   
  5   3   6  1   
  6   4   7  am  
  7   4  30  1   
  8   5   8  1   
  9   5   9  2   
 10   6  31  1   
 11   6  32  1   
 12   6  33  1   
 13   7   9  1   
 14   7  10  2   
 15   8  11  ar  
 16   8  34  1   
 17   9  12  1   
 18  11  12  ar  
 19  11  13  ar  
 20  12  14  1   
 21  13  15  1   
 22  13  16  1   
 23  14  17  1   
 24  14  35  1   
 25  14  36  1   
 26  15  18  1   
 27  15  37  1   
 28  15  38  1   
 29  16  19  1   
 30  16  39  1   
 31  16  40  1   
 32  17  20  1   
 33  17  41  1   
 34  17  42  1   
 35  18  21  1   
 36  18  43  1   
 37  18  44  1   
 38  19  22  1   
 39  19  45  1   
 40  19  46  1   
 41  20  23  ar  
 42  20  24  ar  
 43  21  22  1   
 44  21  47  1   
 45  21  48  1   
 46  22  49  1   
 47  22  50  1   
 48  23  25  ar  
 49  23  51  1   
 50  24  26  ar  
 51  24  52  1   
 52  25  27  ar  
 53  25  53  1   
 54  26  27  ar  
 55  26  54  1   
 56  27  28  1   
 57  28  29  1   
 58  29  55  1   
 59  29  56  1   
 60  29  57  1   
@<TRIPOS>SUBSTRUCTURE
  1 ****  12 GROUP 4 **** **** 0

# MOE 2024.06 (io_trps.svl 2023.06)
