@<TRIPOS>MOLECULE
3-Acetyl-2-thiophen-2-yl-thiazolidine-4-carboxylic acid
26 27 1 0 0 
SMALL
USER_CHARGES


@<TRIPOS>ATOM
  1 S       -0.5260     0.4030    -0.6590 S.3   1 <1>  -0.0800 
  2 C        1.0720     0.9600    -0.1790 C.2   1 <1>  -0.1400 
  3 C       -1.0120     0.2050     1.0160 C.2   1 <1>  -0.1100 
  4 C        1.1750     0.9760     1.1650 C.2   1 <1>  -0.1500 
  5 C        2.0450     1.3220    -1.2920 C.3   1 <1>   0.6300 
  6 C       -0.0090     0.5470     1.8450 C.2   1 <1>  -0.1500 
  7 S        2.7180    -0.2070    -1.9590 S.3   1 <1>  -0.4600 
  8 N        3.2410     2.0260    -0.7900 N.am  1 <1>  -0.6600 
  9 C        4.0610    -0.3190    -0.7710 C.3   1 <1>   0.0700 
 10 C        3.2230     3.3830    -0.7080 C.2   1 <1>   0.5690 
 11 C        4.4500     1.1370    -0.5150 C.3   1 <1>   0.1140 
 12 O        2.2740     4.0270    -1.0910 O.2   1 <1>  -0.5700 
 13 C        4.4030     4.1450    -0.1530 C.3   1 <1>  -0.1790 
 14 C        5.1240     1.2560     0.8610 C.2   1 <1>   0.9060 
 15 O        6.2630     1.7350     0.9100 O.co2 1 <1>  -0.9000 
 16 O        4.5380     0.8630     1.8770 O.co2 1 <1>  -0.9000 
 17 H       -2.0080    -0.1520     1.2040 H     1 <1>   0.1500 
 18 H        2.0540     1.2730     1.7160 H     1 <1>   0.1500 
 19 H        1.5670     1.8640    -2.0890 H     1 <1>   0.0800 
 20 H       -0.0370     0.5180     2.9190 H     1 <1>   0.1500 
 21 H        4.8640    -0.9020    -1.1840 H     1 <1>   0.0800 
 22 H        3.6680    -0.7840     0.1180 H     1 <1>   0.0800 
 23 H        5.2010     1.3960    -1.2380 H     1 <1>   0.0800 
 24 H        5.3090     3.8410    -0.6430 H     1 <1>   0.0800 
 25 H        4.4900     3.9550     0.9010 H     1 <1>   0.0800 
 26 H        4.2630     5.1980    -0.3030 H     1 <1>   0.0800 
@<TRIPOS>BOND
  1   1   2  1   
  2   1   3  1   
  3   2   4  2   
  4   2   5  1   
  5   3   6  2   
  6   3  17  1   
  7   4   6  1   
  8   4  18  1   
  9   5   7  1   
 10   5   8  1   
 11   5  19  1   
 12   6  20  1   
 13   7   9  1   
 14   8  10  am  
 15   8  11  1   
 16   9  11  1   
 17   9  21  1   
 18   9  22  1   
 19  10  12  2   
 20  10  13  1   
 21  11  14  1   
 22  11  23  1   
 23  13  24  1   
 24  13  25  1   
 25  13  26  1   
 26  14  15  ar  
 27  14  16  ar  
@<TRIPOS>SUBSTRUCTURE
  1 ****   8 GROUP 4 **** **** 0

# MOE 2024.06 (io_trps.svl 2023.06)
