@<TRIPOS>MOLECULE
3-Ethylsulfanyl-5,6,8-trimethyl-5H-[1,2,4]triazino[5,6-b]indole
35 37 1 0 0 
SMALL
USER_CHARGES


@<TRIPOS>ATOM
  1 S       -0.1920     1.0220     0.0700 S.3   1 <1>  -0.3320 
  2 C       -1.9680     1.2370     0.0470 C.ar  1 <1>   0.7220 
  3 C        0.0590    -0.8070     0.0490 C.3   1 <1>   0.0700 
  4 N       -2.3830     2.5250     0.0580 N.ar  1 <1>  -0.3100 
  5 N       -2.6960     0.1470     0.0210 N.ar  1 <1>  -0.5670 
  6 C        1.5620    -1.0750     0.0670 C.3   1 <1>  -0.2400 
  7 N       -3.6580     2.7920     0.0430 N.ar  1 <1>  -0.2560 
  8 C       -4.0000     0.4390     0.0060 C.ar  1 <1>   0.1050 
  9 C       -4.4780     1.7340     0.0170 C.ar  1 <1>   0.2560 
 10 N       -5.0600    -0.4340    -0.0210 N.pl3 1 <1>   0.0480 
 11 C       -5.8930     1.6580    -0.0050 C.ar  1 <1>   0.0000 
 12 C       -6.2390     0.3060    -0.0280 C.ar  1 <1>  -0.1520 
 13 C       -4.9160    -1.9040    -0.0390 C.3   1 <1>   0.0160 
 14 C       -6.8740     2.6480    -0.0060 C.ar  1 <1>  -0.1500 
 15 C       -7.5930    -0.0620    -0.0530 C.ar  1 <1>  -0.1440 
 16 C       -8.2020     2.2860    -0.0300 C.ar  1 <1>  -0.1430 
 17 C       -8.5490     0.9340    -0.0530 C.ar  1 <1>  -0.1500 
 18 C       -8.0460    -1.5140    -0.0790 C.3   1 <1>  -0.0970 
 19 C       -9.2990     3.3360    -0.0320 C.3   1 <1>  -0.0970 
 20 H       -0.4040    -1.1850    -0.8460 H     1 <1>   0.0800 
 21 H       -0.4290    -1.2090     0.9190 H     1 <1>   0.0800 
 22 H        2.0270    -0.6330    -0.7970 H     1 <1>   0.0800 
 23 H        1.7460    -2.1340     0.0550 H     1 <1>   0.0800 
 24 H        2.0020    -0.6570     0.9550 H     1 <1>   0.0800 
 25 H       -3.8750    -2.1720    -0.0270 H     1 <1>   0.0800 
 26 H       -5.3680    -2.2950    -0.9310 H     1 <1>   0.0800 
 27 H       -5.3930    -2.3190     0.8290 H     1 <1>   0.0800 
 28 H       -6.5700     3.6790     0.0130 H     1 <1>   0.1500 
 29 H       -9.5940     0.6780    -0.0720 H     1 <1>   0.1500 
 30 H       -7.6710    -2.0020    -0.9590 H     1 <1>   0.0800 
 31 H       -9.1190    -1.5800    -0.0960 H     1 <1>   0.0800 
 32 H       -7.6960    -2.0260     0.7980 H     1 <1>   0.0800 
 33 H       -8.8810     4.3270    -0.0120 H     1 <1>   0.0800 
 34 H       -9.9250     3.2110     0.8330 H     1 <1>   0.0800 
 35 H       -9.9000     3.2350    -0.9170 H     1 <1>   0.0800 
@<TRIPOS>BOND
  1   1   2  1   
  2   1   3  1   
  3   2   4  ar  
  4   2   5  ar  
  5   3   6  1   
  6   3  20  1   
  7   3  21  1   
  8   4   7  ar  
  9   5   8  ar  
 10   6  22  1   
 11   6  23  1   
 12   6  24  1   
 13   7   9  ar  
 14   8   9  ar  
 15   8  10  1   
 16   9  11  1   
 17  10  12  1   
 18  10  13  1   
 19  11  12  ar  
 20  11  14  ar  
 21  12  15  ar  
 22  13  25  1   
 23  13  26  1   
 24  13  27  1   
 25  14  16  ar  
 26  14  28  1   
 27  15  17  ar  
 28  15  18  1   
 29  16  17  ar  
 30  16  19  1   
 31  17  29  1   
 32  18  30  1   
 33  18  31  1   
 34  18  32  1   
 35  19  33  1   
 36  19  34  1   
 37  19  35  1   
@<TRIPOS>SUBSTRUCTURE
  1 ****   8 GROUP 4 **** **** 0

# MOE 2024.06 (io_trps.svl 2023.06)
