@<TRIPOS>MOLECULE
N-(3-Phenyl-[1,2,4]oxadiazol-5-ylmethyl)-isobutyramide
33 34 1 0 0 
SMALL
USER_CHARGES


@<TRIPOS>ATOM
  1 O       -1.4710    -0.4470     1.1580 O.2   1 <1>  -0.5700 
  2 C       -2.3220    -0.8570     0.4100 C.2   1 <1>   0.5690 
  3 N       -1.9590    -1.7430    -0.5470 N.am  1 <1>  -0.7300 
  4 C       -3.7720    -0.3740     0.5760 C.3   1 <1>  -0.0190 
  5 C       -2.8070    -2.4580    -1.5370 C.3   1 <1>   0.3200 
  6 C       -3.8550     1.1580     0.6890 C.3   1 <1>  -0.2400 
  7 C       -4.4320    -1.0230     1.8030 C.3   1 <1>  -0.2400 
  8 C       -3.7700    -3.4370    -0.8790 C.2   1 <1>   0.2980 
  9 O       -3.2780    -4.4270    -0.1820 O.3   1 <1>  -0.0190 
 10 N       -5.0370    -3.3900    -0.9400 N.2   1 <1>  -0.5650 
 11 N       -4.3230    -5.0620     0.2430 N.2   1 <1>  -0.4100 
 12 C       -5.3670    -4.4530    -0.1970 C.2   1 <1>   0.4620 
 13 C       -6.7460    -4.8370     0.0590 C.ar  1 <1>   0.0540 
 14 C       -7.8200    -4.1140    -0.4650 C.ar  1 <1>  -0.1500 
 15 C       -7.0520    -5.9500     0.8440 C.ar  1 <1>  -0.1500 
 16 C       -9.1310    -4.4820    -0.2190 C.ar  1 <1>  -0.1500 
 17 C       -8.3600    -6.3240     1.0940 C.ar  1 <1>  -0.1500 
 18 C       -9.4040    -5.5890     0.5630 C.ar  1 <1>  -0.1500 
 19 H       -0.9790    -2.0290    -0.5060 H     1 <1>   0.3700 
 20 H       -4.3400    -0.6550    -0.2900 H     1 <1>   0.0800 
 21 H       -2.1740    -2.9990    -2.2180 H     1 <1>   0.0800 
 22 H       -3.3700    -1.7400    -2.1070 H     1 <1>   0.0800 
 23 H       -3.3280     1.4970     1.5650 H     1 <1>   0.0800 
 24 H       -4.8800     1.4770     0.7580 H     1 <1>   0.0800 
 25 H       -3.4080     1.6170    -0.1740 H     1 <1>   0.0800 
 26 H       -3.9100    -0.7380     2.7000 H     1 <1>   0.0800 
 27 H       -4.4000    -2.0950     1.7200 H     1 <1>   0.0800 
 28 H       -5.4590    -0.7170     1.8860 H     1 <1>   0.0800 
 29 H       -7.6280    -3.2490    -1.0750 H     1 <1>   0.1500 
 30 H       -6.2530    -6.5350     1.2670 H     1 <1>   0.1500 
 31 H       -9.9400    -3.9060    -0.6350 H     1 <1>   0.1500 
 32 H       -8.5670    -7.1870     1.7030 H     1 <1>   0.1500 
 33 H      -10.4230    -5.8780     0.7560 H     1 <1>   0.1500 
@<TRIPOS>BOND
  1   1   2  2   
  2   2   3  am  
  3   2   4  1   
  4   3   5  1   
  5   3  19  1   
  6   4   6  1   
  7   4   7  1   
  8   4  20  1   
  9   5   8  1   
 10   5  21  1   
 11   5  22  1   
 12   6  23  1   
 13   6  24  1   
 14   6  25  1   
 15   7  26  1   
 16   7  27  1   
 17   7  28  1   
 18   8   9  1   
 19   8  10  2   
 20   9  11  1   
 21  10  12  1   
 22  11  12  2   
 23  12  13  1   
 24  13  14  ar  
 25  13  15  ar  
 26  14  16  ar  
 27  14  29  1   
 28  15  17  ar  
 29  15  30  1   
 30  16  18  ar  
 31  16  31  1   
 32  17  18  ar  
 33  17  32  1   
 34  18  33  1   
@<TRIPOS>SUBSTRUCTURE
  1 ****  10 GROUP 4 **** **** 0

# MOE 2024.06 (io_trps.svl 2023.06)
