@<TRIPOS>MOLECULE
8-(2-Methoxy-5-methyl-phenyl)-1,7-dimethyl-3-(1-methyl-2-oxo-propyl)-1H,8H-imida
54 57 1 0 0 
SMALL
USER_CHARGES


@<TRIPOS>ATOM
  1 O        0.9570     0.2650     2.3080 O.2   1 <1>  -0.5740 
  2 C        1.8530     0.8510     1.7350 C.2   1 <1>   0.6870 
  3 N        1.5990     2.0670     1.1110 N.am  1 <1>  -0.4250 
  4 N        3.1310     0.3060     1.7170 N.am  1 <1>  -0.4410 
  5 C        2.6400     2.8330     0.5970 C.2   1 <1>   0.7000 
  6 C        0.1950     2.3440     0.6500 C.3   1 <1>   0.2750 
  7 C        4.1400     1.0310     1.1150 C.2   1 <1>   0.4210 
  8 C        3.4100    -1.0230     2.3400 C.3   1 <1>   0.0530 
  9 O        2.4540     3.9700     0.1930 O.2   1 <1>  -0.5740 
 10 C        3.9400     2.2530     0.5670 C.2   1 <1>   0.2710 
 11 C        0.1170     2.3310    -0.8910 C.2   1 <1>   0.4430 
 12 C       -0.3480     3.6130     1.3320 C.3   1 <1>  -0.2460 
 13 N        5.4490     0.6780     0.9620 N.pl3 1 <1>  -0.7030 
 14 N        5.1790     2.6620     0.0540 N.pl3 1 <1>  -0.6330 
 15 O        0.9610     1.7960    -1.5520 O.2   1 <1>  -0.5740 
 16 C       -1.0770     2.9790    -1.5630 C.3   1 <1>  -0.1860 
 17 C        6.0360     1.6820     0.3040 C.cat 1 <1>   1.0690 
 18 C        5.8570     3.6050    -0.6910 C.2   1 <1>   0.2230 
 19 N        7.2550     1.9420    -0.1850 N.pl3 1 <1>  -0.5550 
 20 C        7.1260     3.1630    -0.8410 C.2   1 <1>   0.1580 
 21 C        8.3670     1.0690    -0.1190 C.ar  1 <1>   0.3050 
 22 C        8.2740     3.8050    -1.5980 C.3   1 <1>  -0.1090 
 23 C        8.2870    -0.2490    -0.5870 C.ar  1 <1>   0.0750 
 24 C        9.5550     1.5210     0.4370 C.ar  1 <1>  -0.1570 
 25 O        7.0980    -0.6830    -1.0980 O.3   1 <1>  -0.3680 
 26 C        9.4040    -1.0750    -0.5070 C.ar  1 <1>  -0.1570 
 27 C       10.6630     0.6970     0.5180 C.ar  1 <1>  -0.1500 
 28 C        7.0370    -1.8350    -1.9150 C.3   1 <1>   0.0330 
 29 C       10.5820    -0.5990     0.0400 C.ar  1 <1>  -0.1570 
 30 C       11.9630     1.2010     1.1210 C.3   1 <1>  -0.1040 
 31 H       -0.4450     1.5400     0.9680 H     1 <1>   0.0730 
 32 H        2.5010    -1.5910     2.4470 H     1 <1>   0.0730 
 33 H        3.8430    -0.8820     3.3140 H     1 <1>   0.0730 
 34 H        4.0850    -1.5900     1.7240 H     1 <1>   0.0730 
 35 H        0.1240     4.5000     0.9510 H     1 <1>   0.0730 
 36 H       -0.1940     3.5550     2.3950 H     1 <1>   0.0730 
 37 H       -1.4050     3.7000     1.1590 H     1 <1>   0.0730 
 38 H        5.9100    -0.2130     1.1360 H     1 <1>   0.4450 
 39 H       -1.0440     4.0440    -1.4270 H     1 <1>   0.0730 
 40 H       -1.9910     2.5920    -1.1520 H     1 <1>   0.0730 
 41 H       -1.0570     2.7690    -2.6170 H     1 <1>   0.0730 
 42 H        5.3820     4.5020    -1.0590 H     1 <1>   0.1430 
 43 H        8.6650     3.1180    -2.3280 H     1 <1>   0.0730 
 44 H        9.0630     4.0810    -0.9230 H     1 <1>   0.0730 
 45 H        7.9380     4.6900    -2.1090 H     1 <1>   0.0730 
 46 H        9.6160     2.5260     0.8120 H     1 <1>   0.1430 
 47 H        9.3840    -2.0900    -0.8600 H     1 <1>   0.1430 
 48 H        6.0460    -1.9050    -2.3270 H     1 <1>   0.0730 
 49 H        7.2440    -2.7050    -1.3170 H     1 <1>   0.0730 
 50 H        7.7550    -1.7400    -2.7120 H     1 <1>   0.0730 
 51 H       11.4420    -1.2470     0.0950 H     1 <1>   0.1430 
 52 H       11.7900     2.0570     1.7480 H     1 <1>   0.0730 
 53 H       12.6460     1.4790     0.3370 H     1 <1>   0.0730 
 54 H       12.4200     0.4320     1.7190 H     1 <1>   0.0730 
@<TRIPOS>BOND
  1   1   2  2   
  2   2   3  am  
  3   2   4  am  
  4   3   5  am  
  5   3   6  1   
  6   4   7  1   
  7   4   8  1   
  8   5   9  2   
  9   5  10  1   
 10   6  11  1   
 11   6  12  1   
 12   6  31  1   
 13   7  10  2   
 14   7  13  1   
 15   8  32  1   
 16   8  33  1   
 17   8  34  1   
 18  10  14  1   
 19  11  15  2   
 20  11  16  1   
 21  12  35  1   
 22  12  36  1   
 23  12  37  1   
 24  13  17  ar  
 25  13  38  1   
 26  14  17  ar  
 27  14  18  1   
 28  16  39  1   
 29  16  40  1   
 30  16  41  1   
 31  17  19  ar  
 32  18  20  2   
 33  18  42  1   
 34  19  20  1   
 35  19  21  1   
 36  20  22  1   
 37  21  23  ar  
 38  21  24  ar  
 39  22  43  1   
 40  22  44  1   
 41  22  45  1   
 42  23  25  1   
 43  23  26  ar  
 44  24  27  ar  
 45  24  46  1   
 46  25  28  1   
 47  26  29  ar  
 48  26  47  1   
 49  27  29  ar  
 50  27  30  1   
 51  28  48  1   
 52  28  49  1   
 53  28  50  1   
 54  29  51  1   
 55  30  52  1   
 56  30  53  1   
 57  30  54  1   
@<TRIPOS>SUBSTRUCTURE
  1 ****  17 GROUP 4 **** **** 0

# MOE 2024.06 (io_trps.svl 2023.06)
