@<TRIPOS>MOLECULE
N-Benzo[1,3]dioxol-5-yl-2-(4-cyclopentylsulfamoyl-phenoxy)-acetamide
51 54 1 0 0 
SMALL
USER_CHARGES


@<TRIPOS>ATOM
  1 S       -0.0270     0.7740     0.9580 S.o2  1 <1>   1.4470 
  2 O       -0.3750    -0.1300     2.0300 O.2   1 <1>  -0.6500 
  3 O       -0.7370     2.0220     0.7950 O.2   1 <1>  -0.6500 
  4 N       -0.1870    -0.1710    -0.4220 N.am  1 <1>  -0.9140 
  5 C        1.7540     1.1090     1.0020 C.ar  1 <1>  -0.0090 
  6 C       -1.4050    -0.1010    -1.2180 C.3   1 <1>   0.2760 
  7 C        2.3910     1.7120    -0.0760 C.ar  1 <1>  -0.1500 
  8 C        2.5260     0.7790     2.1110 C.ar  1 <1>  -0.1500 
  9 C       -1.5630     1.2110    -1.9950 C.3   1 <1>  -0.1600 
 10 C       -2.7030    -0.3190    -0.4310 C.3   1 <1>  -0.1600 
 11 C        3.7490     1.9740    -0.0510 C.ar  1 <1>  -0.1500 
 12 C        3.8850     1.0360     2.1480 C.ar  1 <1>  -0.1500 
 13 C       -2.9540     1.7480    -1.6440 C.3   1 <1>  -0.1600 
 14 C       -3.7400     0.5340    -1.1590 C.3   1 <1>  -0.1600 
 15 C        4.5060     1.6390     1.0590 C.ar  1 <1>   0.0820 
 16 O        5.8270     1.9280     1.0070 O.3   1 <1>  -0.3620 
 17 C        6.6880     1.6450     2.1040 C.3   1 <1>   0.1810 
 18 C        8.1160     2.0810     1.8070 C.2   1 <1>   0.5690 
 19 O        8.9600     1.8500     2.6390 O.2   1 <1>  -0.5700 
 20 N        8.3640     2.7020     0.6130 N.am  1 <1>  -0.5470 
 21 C        9.5370     3.2160     0.0350 C.ar  1 <1>   0.1170 
 22 C        9.5230     3.4990    -1.3300 C.ar  1 <1>  -0.1500 
 23 C       10.7030     3.4650     0.7680 C.ar  1 <1>  -0.1500 
 24 C       10.6630     4.0120    -1.9130 C.ar  1 <1>   0.0820 
 25 C       11.8440     3.9810     0.1660 C.ar  1 <1>  -0.1500 
 26 O       10.8600     4.3480    -3.1930 O.3   1 <1>  -0.3630 
 27 C       11.7930     4.2460    -1.1870 C.ar  1 <1>   0.0820 
 28 C       12.2020     4.8230    -3.2880 C.3   1 <1>   0.4000 
 29 O       12.7560     4.7410    -1.9760 O.3   1 <1>  -0.3620 
 30 H       -0.1500    -1.1140    -0.0430 H     1 <1>   0.4200 
 31 H       -1.3470    -0.8850    -1.9560 H     1 <1>   0.0800 
 32 H        1.8120     1.9790    -0.9440 H     1 <1>   0.1500 
 33 H        2.0530     0.3120     2.9610 H     1 <1>   0.1500 
 34 H       -1.5240     0.9960    -3.0470 H     1 <1>   0.0800 
 35 H       -0.7990     1.9320    -1.7650 H     1 <1>   0.0800 
 36 H       -2.6300     0.0410     0.5780 H     1 <1>   0.0800 
 37 H       -2.9900    -1.3550    -0.4180 H     1 <1>   0.0800 
 38 H        4.2250     2.4410    -0.8940 H     1 <1>   0.1500 
 39 H        4.4340     0.7600     3.0290 H     1 <1>   0.1500 
 40 H       -3.4260     2.2310    -2.4810 H     1 <1>   0.0800 
 41 H       -2.8650     2.4560    -0.8360 H     1 <1>   0.0800 
 42 H       -4.5560     0.8140    -0.5150 H     1 <1>   0.0800 
 43 H       -4.1270    -0.0070    -2.0060 H     1 <1>   0.0800 
 44 H        6.6720     0.5870     2.2870 H     1 <1>   0.0800 
 45 H        6.3290     2.1760     2.9660 H     1 <1>   0.0800 
 46 H        7.5290     2.7670     0.0260 H     1 <1>   0.3700 
 47 H        8.6510     3.3250    -1.9310 H     1 <1>   0.1500 
 48 H       10.7290     3.2600     1.8220 H     1 <1>   0.1500 
 49 H       12.7410     4.1710     0.7250 H     1 <1>   0.1500 
 50 H       12.1990     5.8480    -3.6140 H     1 <1>   0.0800 
 51 H       12.7610     4.1930    -3.9560 H     1 <1>   0.0800 
@<TRIPOS>BOND
  1   1   2  2   
  2   1   3  2   
  3   1   4  am  
  4   1   5  1   
  5   4   6  1   
  6   4  30  1   
  7   5   7  ar  
  8   5   8  ar  
  9   6   9  1   
 10   6  10  1   
 11   6  31  1   
 12   7  11  ar  
 13   7  32  1   
 14   8  12  ar  
 15   8  33  1   
 16   9  13  1   
 17   9  34  1   
 18   9  35  1   
 19  10  14  1   
 20  10  36  1   
 21  10  37  1   
 22  11  15  ar  
 23  11  38  1   
 24  12  15  ar  
 25  12  39  1   
 26  13  14  1   
 27  13  40  1   
 28  13  41  1   
 29  14  42  1   
 30  14  43  1   
 31  15  16  1   
 32  16  17  1   
 33  17  18  1   
 34  17  44  1   
 35  17  45  1   
 36  18  19  2   
 37  18  20  am  
 38  20  21  1   
 39  20  46  1   
 40  21  22  ar  
 41  21  23  ar  
 42  22  24  ar  
 43  22  47  1   
 44  23  25  ar  
 45  23  48  1   
 46  24  26  1   
 47  24  27  ar  
 48  25  27  ar  
 49  25  49  1   
 50  26  28  1   
 51  27  29  1   
 52  28  29  1   
 53  28  50  1   
 54  28  51  1   
@<TRIPOS>SUBSTRUCTURE
  1 ****  11 GROUP 4 **** **** 0

# MOE 2024.06 (io_trps.svl 2023.06)
