@<TRIPOS>MOLECULE
6-Bromo-2-oxo-2H-chromene-3-carboxylic acid (5-cyclohexyl-[1,3,4]thiadiazol-2-yl
42 45 1 0 0 
SMALL
USER_CHARGES


@<TRIPOS>ATOM
  1 BR       1.5770     1.4200     2.4060 Br    1 <1>  -0.1110 
  2 C        2.5790     0.6390     0.9590 C.ar  1 <1>   0.1110 
  3 C        3.9440     0.8230     0.9210 C.ar  1 <1>  -0.1500 
  4 C        1.8930    -0.0860    -0.0020 C.ar  1 <1>  -0.1500 
  5 C        4.6770     0.2590    -0.1240 C.ar  1 <1>   0.0280 
  6 C        2.6120    -0.6470    -1.0400 C.ar  1 <1>  -0.1500 
  7 C        3.9900    -0.4760    -1.1010 C.ar  1 <1>   0.0830 
  8 C        6.0880     0.3870    -0.2520 C.2   1 <1>  -0.1780 
  9 O        4.6700    -1.0320    -2.1270 O.3   1 <1>  -0.2320 
 10 C        6.7440    -0.1990    -1.2910 C.2   1 <1>   0.0290 
 11 C        5.9950    -0.9240    -2.2770 C.2   1 <1>   0.7060 
 12 C        8.1650    -0.1050    -1.4740 C.2   1 <1>   0.6160 
 13 O        6.4910    -1.4620    -3.2450 O.2   1 <1>  -0.5700 
 14 O        8.6810     0.9860    -1.5680 O.2   1 <1>  -0.5700 
 15 N        9.0180    -1.1700    -1.5200 N.am  1 <1>  -0.4940 
 16 C        8.9100    -2.5000    -1.1820 C.2   1 <1>   0.4420 
 17 S        7.5220    -3.1160    -0.3380 S.3   1 <1>  -0.0800 
 18 N        9.7870    -3.4080    -1.3960 N.2   1 <1>  -0.3380 
 19 C        8.2810    -4.6710    -0.3710 C.2   1 <1>   0.1980 
 20 N        9.4210    -4.6430    -0.9370 N.2   1 <1>  -0.3380 
 21 C        7.5240    -5.8380     0.2550 C.3   1 <1>   0.1000 
 22 C        8.4560    -7.0260     0.5590 C.3   1 <1>  -0.1600 
 23 C        6.3660    -6.2830    -0.6580 C.3   1 <1>  -0.1600 
 24 C        7.6870    -8.2100     1.1620 C.3   1 <1>  -0.1600 
 25 C        5.5960    -7.4700    -0.0610 C.3   1 <1>  -0.1600 
 26 C        6.5350    -8.6430     0.2470 C.3   1 <1>  -0.1600 
 27 H        4.4330     1.3950     1.6880 H     1 <1>   0.1500 
 28 H        0.8250    -0.2030     0.0680 H     1 <1>   0.1500 
 29 H        2.1130    -1.2160    -1.8060 H     1 <1>   0.1500 
 30 H        6.6150     0.9610     0.4920 H     1 <1>   0.1500 
 31 H        9.9430    -0.9060    -1.8560 H     1 <1>   0.3700 
 32 H        7.1100    -5.4960     1.1870 H     1 <1>   0.0800 
 33 H        9.2270    -6.7120     1.2410 H     1 <1>   0.0800 
 34 H        8.9340    -7.3450    -0.3520 H     1 <1>   0.0800 
 35 H        6.7650    -6.5650    -1.6180 H     1 <1>   0.0800 
 36 H        5.6870    -5.4630    -0.8140 H     1 <1>   0.0800 
 37 H        7.2940    -7.9310     2.1250 H     1 <1>   0.0800 
 38 H        8.3600    -9.0380     1.3090 H     1 <1>   0.0800 
 39 H        4.8360    -7.7910    -0.7540 H     1 <1>   0.0800 
 40 H        5.1040    -7.1600     0.8450 H     1 <1>   0.0800 
 41 H        5.9790    -9.4360     0.7170 H     1 <1>   0.0800 
 42 H        6.9380    -9.0270    -0.6750 H     1 <1>   0.0800 
@<TRIPOS>BOND
  1   1   2  1   
  2   2   3  ar  
  3   2   4  ar  
  4   3   5  ar  
  5   3  27  1   
  6   4   6  ar  
  7   4  28  1   
  8   5   7  ar  
  9   5   8  1   
 10   6   7  ar  
 11   6  29  1   
 12   7   9  1   
 13   8  10  2   
 14   8  30  1   
 15   9  11  1   
 16  10  11  1   
 17  10  12  1   
 18  11  13  2   
 19  12  14  2   
 20  12  15  am  
 21  15  16  1   
 22  15  31  1   
 23  16  17  1   
 24  16  18  2   
 25  17  19  1   
 26  18  20  1   
 27  19  20  2   
 28  19  21  1   
 29  21  22  1   
 30  21  23  1   
 31  21  32  1   
 32  22  24  1   
 33  22  33  1   
 34  22  34  1   
 35  23  25  1   
 36  23  35  1   
 37  23  36  1   
 38  24  26  1   
 39  24  37  1   
 40  24  38  1   
 41  25  26  1   
 42  25  39  1   
 43  25  40  1   
 44  26  41  1   
 45  26  42  1   
@<TRIPOS>SUBSTRUCTURE
  1 ****  17 GROUP 4 **** **** 0

# MOE 2024.06 (io_trps.svl 2023.06)
