@<TRIPOS>MOLECULE
3-(3-Phenyl-[1,2,4]oxadiazol-5-yl)-N-propyl-propionamide
36 37 1 0 0 
SMALL
USER_CHARGES


@<TRIPOS>ATOM
  1 O        0.3150    -0.3670     1.2820 O.2   1 <1>  -0.5700 
  2 C        0.8100    -1.4480     1.0940 C.2   1 <1>   0.5690 
  3 N        2.1350    -1.5370     0.8370 N.am  1 <1>  -0.7300 
  4 C       -0.0520    -2.6960     1.1480 C.3   1 <1>  -0.0990 
  5 C        2.9670    -2.7370     0.6100 C.3   1 <1>   0.1400 
  6 C       -1.5570    -2.3860     1.1730 C.3   1 <1>   0.0200 
  7 C        3.2910    -2.8440    -0.8800 C.3   1 <1>  -0.1600 
  8 C       -2.3720    -3.6630     1.2000 C.2   1 <1>   0.2980 
  9 C        4.1430    -4.0830    -1.1780 C.3   1 <1>  -0.2400 
 10 O       -2.3820    -4.3790     2.2930 O.3   1 <1>  -0.0190 
 11 N       -3.0550    -4.1260     0.2380 N.2   1 <1>  -0.5650 
 12 N       -3.1400    -5.3890     2.0010 N.2   1 <1>  -0.4100 
 13 C       -3.5430    -5.2430     0.7880 C.2   1 <1>   0.4620 
 14 C       -4.4170    -6.1570     0.0690 C.ar  1 <1>   0.0540 
 15 C       -4.8080    -5.9150    -1.2510 C.ar  1 <1>  -0.1500 
 16 C       -4.9020    -7.3200     0.6710 C.ar  1 <1>  -0.1500 
 17 C       -5.6370    -6.7860    -1.9330 C.ar  1 <1>  -0.1500 
 18 C       -5.7320    -8.1960    -0.0050 C.ar  1 <1>  -0.1500 
 19 C       -6.1020    -7.9300    -1.3110 C.ar  1 <1>  -0.1500 
 20 H        2.6260    -0.6410     0.7900 H     1 <1>   0.3700 
 21 H        0.2130    -3.2520     2.0270 H     1 <1>   0.0800 
 22 H        0.1590    -3.2990     0.2840 H     1 <1>   0.0800 
 23 H        2.4500    -3.6220     0.9400 H     1 <1>   0.0800 
 24 H        3.8770    -2.6490     1.1810 H     1 <1>   0.0800 
 25 H       -1.8230    -1.8190     0.2990 H     1 <1>   0.0800 
 26 H       -1.8010    -1.7970     2.0390 H     1 <1>   0.0800 
 27 H        3.8260    -1.9650    -1.1940 H     1 <1>   0.0800 
 28 H        2.3740    -2.9050    -1.4410 H     1 <1>   0.0800 
 29 H        5.0750    -4.0390    -0.6410 H     1 <1>   0.0800 
 30 H        4.3590    -4.1340    -2.2310 H     1 <1>   0.0800 
 31 H        3.6200    -4.9790    -0.8940 H     1 <1>   0.0800 
 32 H       -4.4560    -5.0300    -1.7510 H     1 <1>   0.1500 
 33 H       -4.6250    -7.5420     1.6870 H     1 <1>   0.1500 
 34 H       -5.9220    -6.5740    -2.9490 H     1 <1>   0.1500 
 35 H       -6.0910    -9.0850     0.4850 H     1 <1>   0.1500 
 36 H       -6.7480    -8.6100    -1.8390 H     1 <1>   0.1500 
@<TRIPOS>BOND
  1   1   2  2   
  2   2   3  am  
  3   2   4  1   
  4   3   5  1   
  5   3  20  1   
  6   4   6  1   
  7   4  21  1   
  8   4  22  1   
  9   5   7  1   
 10   5  23  1   
 11   5  24  1   
 12   6   8  1   
 13   6  25  1   
 14   6  26  1   
 15   7   9  1   
 16   7  27  1   
 17   7  28  1   
 18   8  10  1   
 19   8  11  2   
 20   9  29  1   
 21   9  30  1   
 22   9  31  1   
 23  10  12  1   
 24  11  13  1   
 25  12  13  2   
 26  13  14  1   
 27  14  15  ar  
 28  14  16  ar  
 29  15  17  ar  
 30  15  32  1   
 31  16  18  ar  
 32  16  33  1   
 33  17  19  ar  
 34  17  34  1   
 35  18  19  ar  
 36  18  35  1   
 37  19  36  1   
@<TRIPOS>SUBSTRUCTURE
  1 ****   8 GROUP 4 **** **** 0

# MOE 2024.06 (io_trps.svl 2023.06)
