@<TRIPOS>MOLECULE
1-(2,3,5,6-Tetramethyl-benzyl)-1H-imidazole
34 35 1 0 0 
SMALL
USER_CHARGES


@<TRIPOS>ATOM
  1 N        0.1780    -0.2500    -0.4670 N.2   1 <1>  -0.5650 
  2 C        0.2820    -1.1180     0.4850 C.2   1 <1>   0.0370 
  3 C       -0.4670    -0.9220    -1.4390 C.2   1 <1>   0.0770 
  4 N       -0.2580    -2.3250     0.1980 N.pl3 1 <1>   0.0480 
  5 C       -0.7410    -2.1860    -1.0520 C.2   1 <1>  -0.3020 
  6 C       -0.2860    -3.5040     1.0950 C.3   1 <1>   0.2390 
  7 C       -0.9780    -4.7140     0.4530 C.ar  1 <1>  -0.1440 
  8 C       -2.3540    -4.8970     0.6200 C.ar  1 <1>  -0.1440 
  9 C       -0.2260    -5.6340    -0.2840 C.ar  1 <1>  -0.1430 
 10 C       -2.9640    -6.0290     0.0880 C.ar  1 <1>  -0.1430 
 11 C       -3.1890    -3.8600     1.3780 C.3   1 <1>  -0.0970 
 12 C       -0.8480    -6.7620    -0.8110 C.ar  1 <1>  -0.1430 
 13 C        1.2720    -5.4050    -0.5160 C.3   1 <1>  -0.0970 
 14 C       -2.2040    -6.9430    -0.6170 C.ar  1 <1>  -0.1500 
 15 C       -4.4510    -6.3220     0.2490 C.3   1 <1>  -0.0970 
 16 C       -0.0990    -7.8300    -1.5990 C.3   1 <1>  -0.0970 
 17 H        0.7530    -0.9150     1.4300 H     1 <1>   0.1500 
 18 H       -0.7050    -0.4540    -2.3800 H     1 <1>   0.1500 
 19 H       -1.2410    -2.9770    -1.5840 H     1 <1>   0.1500 
 20 H       -0.7820    -3.2270     2.0050 H     1 <1>   0.0800 
 21 H        0.7230    -3.7480     1.3650 H     1 <1>   0.0800 
 22 H       -3.0620    -3.9930     2.4370 H     1 <1>   0.0800 
 23 H       -4.2350    -3.9310     1.1530 H     1 <1>   0.0800 
 24 H       -2.8940    -2.8620     1.1100 H     1 <1>   0.0800 
 25 H        1.8240    -5.6860     0.3620 H     1 <1>   0.0800 
 26 H        1.4700    -4.3730    -0.7440 H     1 <1>   0.0800 
 27 H        1.6490    -5.9700    -1.3460 H     1 <1>   0.0800 
 28 H       -2.6800    -7.8160    -1.0260 H     1 <1>   0.1500 
 29 H       -5.0280    -5.6110    -0.3140 H     1 <1>   0.0800 
 30 H       -4.7300    -6.2670     1.2850 H     1 <1>   0.0800 
 31 H       -4.6930    -7.3070    -0.1060 H     1 <1>   0.0800 
 32 H        0.2220    -7.4300    -2.5440 H     1 <1>   0.0800 
 33 H       -0.7260    -8.6820    -1.7920 H     1 <1>   0.0800 
 34 H        0.7570    -8.1680    -1.0450 H     1 <1>   0.0800 
@<TRIPOS>BOND
  1   1   2  2   
  2   1   3  1   
  3   2   4  1   
  4   2  17  1   
  5   3   5  2   
  6   3  18  1   
  7   4   5  1   
  8   4   6  1   
  9   5  19  1   
 10   6   7  1   
 11   6  20  1   
 12   6  21  1   
 13   7   8  ar  
 14   7   9  ar  
 15   8  10  ar  
 16   8  11  1   
 17   9  12  ar  
 18   9  13  1   
 19  10  14  ar  
 20  10  15  1   
 21  11  22  1   
 22  11  23  1   
 23  11  24  1   
 24  12  14  ar  
 25  12  16  1   
 26  13  25  1   
 27  13  26  1   
 28  13  27  1   
 29  14  28  1   
 30  15  29  1   
 31  15  30  1   
 32  15  31  1   
 33  16  32  1   
 34  16  33  1   
 35  16  34  1   
@<TRIPOS>SUBSTRUCTURE
  1 ****   7 GROUP 4 **** **** 0

# MOE 2024.06 (io_trps.svl 2023.06)
