@<TRIPOS>MOLECULE
4-(2-Chloro-phenyl)-6-(4-methyl-piperazin-1-ylmethyl)-2-oxo-1,2,3,4-tetrahydro-p
50 52 1 0 0 
SMALL
USER_CHARGES


@<TRIPOS>ATOM
  1 CL      -2.7270    -1.2770    -2.4540 Cl    1 <1>  -0.1770 
  2 C       -2.6090     0.0610    -1.3350 C.ar  1 <1>   0.1770 
  3 C       -2.7090    -0.1200     0.0420 C.ar  1 <1>  -0.1440 
  4 C       -2.4130     1.3150    -1.8860 C.ar  1 <1>  -0.1500 
  5 C       -2.6130     1.0050     0.8530 C.ar  1 <1>  -0.1500 
  6 C       -2.9170    -1.4840     0.7020 C.3   1 <1>   0.5020 
  7 C       -2.3170     2.4210    -1.0630 C.ar  1 <1>  -0.1500 
  8 C       -2.4180     2.2630     0.3080 C.ar  1 <1>  -0.1500 
  9 N       -1.6740    -2.2660     0.5540 N.am  1 <1>  -0.7300 
 10 C       -4.1590    -2.2330     0.2020 C.2   1 <1>  -0.1240 
 11 C       -1.6100    -3.4660    -0.0440 C.2   1 <1>   0.6900 
 12 C       -4.0170    -3.4640    -0.3650 C.2   1 <1>  -0.0290 
 13 C       -5.3590    -1.4880     0.4190 C.2   1 <1>   0.7060 
 14 O       -0.5590    -4.0510    -0.1660 O.2   1 <1>  -0.5700 
 15 N       -2.7590    -4.0230    -0.4910 N.am  1 <1>  -0.5390 
 16 C       -5.1480    -4.3470    -0.9040 C.3   1 <1>   0.2480 
 17 O       -5.4720    -0.6640     1.3060 O.2   1 <1>  -0.5700 
 18 O       -6.4050    -1.7070    -0.3840 O.3   1 <1>  -0.4300 
 19 N       -4.9100    -5.7810    -0.5990 N.3   1 <1>  -0.8100 
 20 C       -7.6010    -0.9590    -0.2640 C.3   1 <1>   0.0400 
 21 C       -4.9780    -6.0550     0.8600 C.3   1 <1>   0.1100 
 22 C       -5.8570    -6.6540    -1.3310 C.3   1 <1>   0.1100 
 23 C       -4.7100    -7.5440     1.1960 C.3   1 <1>   0.3430 
 24 C       -5.6600    -8.1570    -1.0020 C.3   1 <1>   0.3430 
 25 N       -4.5190    -8.3640    -0.0480 N.4   1 <1>  -0.9590 
 26 C       -4.2310    -9.8000     0.2300 C.3   1 <1>   0.2630 
 27 H       -2.3380     1.4190    -2.9540 H     1 <1>   0.1500 
 28 H       -2.6950     0.9140     1.9240 H     1 <1>   0.1500 
 29 H       -3.0520    -1.3260     1.7590 H     1 <1>   0.0800 
 30 H       -2.1650     3.4000    -1.4850 H     1 <1>   0.1500 
 31 H       -2.3480     3.1230     0.9530 H     1 <1>   0.1500 
 32 H       -0.7950    -1.7860     0.7350 H     1 <1>   0.3700 
 33 H       -2.6550    -4.9340    -0.9360 H     1 <1>   0.3700 
 34 H       -5.1860    -4.2140    -1.9720 H     1 <1>   0.0800 
 35 H       -6.1000    -4.0540    -0.4990 H     1 <1>   0.0800 
 36 H       -8.2920    -1.2950    -1.0160 H     1 <1>   0.0800 
 37 H       -7.3760     0.0840    -0.4090 H     1 <1>   0.0800 
 38 H       -8.0150    -1.1160     0.7170 H     1 <1>   0.0800 
 39 H       -5.9480    -5.7790     1.2390 H     1 <1>   0.0800 
 40 H       -4.2500    -5.4550     1.3800 H     1 <1>   0.0800 
 41 H       -5.7220    -6.5130    -2.3910 H     1 <1>   0.0800 
 42 H       -6.8710    -6.3750    -1.0970 H     1 <1>   0.0800 
 43 H       -5.5360    -7.9300     1.7700 H     1 <1>   0.0800 
 44 H       -3.8270    -7.6060     1.8110 H     1 <1>   0.0800 
 45 H       -5.4760    -8.6930    -1.9180 H     1 <1>   0.0800 
 46 H       -6.5700    -8.5450    -0.5740 H     1 <1>   0.0800 
 47 H       -3.7140    -7.9170    -0.5180 H     1 <1>   0.4500 
 48 H       -5.0710   -10.2630     0.7210 H     1 <1>   0.0800 
 49 H       -3.3650    -9.8910     0.8660 H     1 <1>   0.0800 
 50 H       -4.0350   -10.3270    -0.6910 H     1 <1>   0.0800 
@<TRIPOS>BOND
  1   1   2  1   
  2   2   3  ar  
  3   2   4  ar  
  4   3   5  ar  
  5   3   6  1   
  6   4   7  ar  
  7   4  27  1   
  8   5   8  ar  
  9   5  28  1   
 10   6   9  1   
 11   6  10  1   
 12   6  29  1   
 13   7   8  ar  
 14   7  30  1   
 15   8  31  1   
 16   9  11  am  
 17   9  32  1   
 18  10  12  2   
 19  10  13  1   
 20  11  14  2   
 21  11  15  am  
 22  12  15  1   
 23  12  16  1   
 24  13  17  2   
 25  13  18  1   
 26  15  33  1   
 27  16  19  1   
 28  16  34  1   
 29  16  35  1   
 30  18  20  1   
 31  19  21  1   
 32  19  22  1   
 33  20  36  1   
 34  20  37  1   
 35  20  38  1   
 36  21  23  1   
 37  21  39  1   
 38  21  40  1   
 39  22  24  1   
 40  22  41  1   
 41  22  42  1   
 42  23  25  1   
 43  23  43  1   
 44  23  44  1   
 45  24  25  1   
 46  24  45  1   
 47  24  46  1   
 48  25  26  1   
 49  25  47  1   
 50  26  48  1   
 51  26  49  1   
 52  26  50  1   
@<TRIPOS>SUBSTRUCTURE
  1 ****  12 GROUP 4 **** **** 0

# MOE 2024.06 (io_trps.svl 2023.06)
