@<TRIPOS>MOLECULE
2-Oxo-1-oxa-spiro[4.4]nonane-4-carboxylic acid (4-methoxy-phenyl)-amide
40 42 1 0 0 
SMALL
USER_CHARGES


@<TRIPOS>ATOM
  1 O       -0.5590     0.8200     0.7710 O.2   1 <1>  -0.5700 
  2 C       -1.7390     1.0260     0.8500 C.2   1 <1>   0.6590 
  3 O       -2.5940     0.7480    -0.1130 O.3   1 <1>  -0.4300 
  4 C       -2.4330     1.6060     2.0510 C.3   1 <1>  -0.0990 
  5 C       -3.9320     0.9120     0.2880 C.3   1 <1>   0.2800 
  6 C       -3.8580     1.8240     1.5290 C.3   1 <1>  -0.0190 
  7 C       -4.4830    -0.4880     0.5720 C.3   1 <1>  -0.1600 
  8 C       -4.7630     1.3610    -0.9160 C.3   1 <1>  -0.1600 
  9 C       -4.2690     3.2680     1.2240 C.2   1 <1>   0.5690 
 10 C       -4.8010    -1.0880    -0.8020 C.3   1 <1>  -0.1600 
 11 C       -4.9750     0.0990    -1.7580 C.3   1 <1>  -0.1600 
 12 O       -5.4100     3.5660     1.4690 O.2   1 <1>  -0.5700 
 13 N       -3.4630     4.2370     0.7070 N.am  1 <1>  -0.5470 
 14 C       -2.1000     4.2840     0.4050 C.ar  1 <1>   0.1170 
 15 C       -1.2300     4.9410     1.2650 C.ar  1 <1>  -0.1500 
 16 C       -1.5950     3.6970    -0.7470 C.ar  1 <1>  -0.1500 
 17 C        0.1270     4.9750     0.9980 C.ar  1 <1>  -0.1500 
 18 C       -0.2380     3.7220    -1.0140 C.ar  1 <1>  -0.1500 
 19 C        0.6320     4.3550    -0.1320 C.ar  1 <1>   0.0820 
 20 O        1.9760     4.3960    -0.3140 O.3   1 <1>  -0.3620 
 21 C        2.6060     3.3750    -1.0570 C.3   1 <1>   0.0400 
 22 H       -1.9530     2.5020     2.3950 H     1 <1>   0.0800 
 23 H       -2.4210     0.8720     2.8350 H     1 <1>   0.0800 
 24 H       -4.5530     1.4700     2.2690 H     1 <1>   0.0800 
 25 H       -5.4020    -0.4020     1.1240 H     1 <1>   0.0800 
 26 H       -3.7960    -1.0980     1.1330 H     1 <1>   0.0800 
 27 H       -4.2930     2.1490    -1.4750 H     1 <1>   0.0800 
 28 H       -5.7240     1.7050    -0.5730 H     1 <1>   0.0800 
 29 H       -5.6870    -1.6990    -0.7630 H     1 <1>   0.0800 
 30 H       -3.9740    -1.6940    -1.1340 H     1 <1>   0.0800 
 31 H       -4.2250     0.0490    -2.5300 H     1 <1>   0.0800 
 32 H       -5.9490     0.1000    -2.2180 H     1 <1>   0.0800 
 33 H       -3.9540     5.1280     0.6170 H     1 <1>   0.3700 
 34 H       -1.6120     5.4200     2.1480 H     1 <1>   0.1500 
 35 H       -2.2580     3.2080    -1.4350 H     1 <1>   0.1500 
 36 H        0.8050     5.4750     1.6650 H     1 <1>   0.1500 
 37 H        0.1260     3.2480    -1.9060 H     1 <1>   0.1500 
 38 H        3.6680     3.4640    -0.9130 H     1 <1>   0.0800 
 39 H        2.3670     3.5000    -2.0970 H     1 <1>   0.0800 
 40 H        2.2660     2.4200    -0.6950 H     1 <1>   0.0800 
@<TRIPOS>BOND
  1   1   2  2   
  2   2   3  1   
  3   2   4  1   
  4   3   5  1   
  5   4   6  1   
  6   4  22  1   
  7   4  23  1   
  8   5   6  1   
  9   5   7  1   
 10   5   8  1   
 11   6   9  1   
 12   6  24  1   
 13   7  10  1   
 14   7  25  1   
 15   7  26  1   
 16   8  11  1   
 17   8  27  1   
 18   8  28  1   
 19   9  12  2   
 20   9  13  am  
 21  10  11  1   
 22  10  29  1   
 23  10  30  1   
 24  11  31  1   
 25  11  32  1   
 26  13  14  1   
 27  13  33  1   
 28  14  15  ar  
 29  14  16  ar  
 30  15  17  ar  
 31  15  34  1   
 32  16  18  ar  
 33  16  35  1   
 34  17  19  ar  
 35  17  36  1   
 36  18  19  ar  
 37  18  37  1   
 38  19  20  1   
 39  20  21  1   
 40  21  38  1   
 41  21  39  1   
 42  21  40  1   
@<TRIPOS>SUBSTRUCTURE
  1 ****   2 GROUP 4 **** **** 0

# MOE 2024.06 (io_trps.svl 2023.06)
