@<TRIPOS>MOLECULE
1-(3,4-Dimethoxy-benzenesulfonyl)-piperidine-3-carboxylic acid cyclopropylamide
49 51 1 0 0 
SMALL
USER_CHARGES


@<TRIPOS>ATOM
  1 S        0.2660    -1.1550     1.9090 S.o2  1 <1>   1.4470 
  2 O       -0.4970    -2.2130     2.5340 O.2   1 <1>  -0.6500 
  3 O        1.4370    -0.6300     2.5810 O.2   1 <1>  -0.6500 
  4 N        0.8000    -1.7560     0.4150 N.am  1 <1>  -0.8490 
  5 C       -0.8550     0.1880     1.4330 C.ar  1 <1>  -0.0090 
  6 C        1.7290    -0.8430    -0.2890 C.3   1 <1>   0.1960 
  7 C        1.2630    -3.1500     0.5310 C.3   1 <1>   0.1960 
  8 C       -1.9080    -0.0470     0.5580 C.ar  1 <1>  -0.1500 
  9 C       -0.6920     1.4750     1.9250 C.ar  1 <1>  -0.1500 
 10 C        3.1940    -1.2660    -0.1120 C.3   1 <1>  -0.0190 
 11 C        2.1610    -3.5470    -0.6460 C.3   1 <1>  -0.1600 
 12 C       -2.7850     0.9610     0.1660 C.ar  1 <1>   0.0830 
 13 C       -1.5530     2.4900     1.5530 C.ar  1 <1>  -0.1500 
 14 C        4.1180    -0.2220    -0.7190 C.2   1 <1>   0.5690 
 15 C        3.4260    -2.6690    -0.7190 C.3   1 <1>  -0.1600 
 16 O       -3.7960     0.7050    -0.7160 O.3   1 <1>  -0.3630 
 17 C       -2.6040     2.2560     0.6840 C.ar  1 <1>   0.0830 
 18 O        3.9010     0.1690    -1.8420 O.2   1 <1>  -0.5700 
 19 N        5.1580     0.2360     0.0270 N.am  1 <1>  -0.5790 
 20 C       -3.9660    -0.5540    -1.3320 C.3   1 <1>   0.0400 
 21 O       -3.3680     3.3560     0.4240 O.3   1 <1>  -0.3630 
 22 C        6.1480     1.2310    -0.4100 C.3   1 <1>   0.0490 
 23 C       -4.6570     3.2810    -0.1430 C.3   1 <1>   0.0400 
 24 C        7.5490     1.0870     0.0820 C.3   1 <1>  -0.2000 
 25 C        6.6760     2.1880     0.6050 C.3   1 <1>  -0.2000 
 26 H        1.5950     0.1710     0.0480 H     1 <1>   0.0800 
 27 H        1.4930    -0.8590    -1.3410 H     1 <1>   0.0800 
 28 H        0.4060    -3.8030     0.5780 H     1 <1>   0.0800 
 29 H        1.8200    -3.2740     1.4470 H     1 <1>   0.0800 
 30 H       -2.0160    -1.0510     0.1920 H     1 <1>   0.1500 
 31 H        0.1160     1.6880     2.6060 H     1 <1>   0.1500 
 32 H        3.3920    -1.3070     0.9430 H     1 <1>   0.0800 
 33 H        1.5920    -3.4470    -1.5540 H     1 <1>   0.0800 
 34 H        2.4430    -4.5810    -0.5540 H     1 <1>   0.0800 
 35 H       -1.4150     3.4830     1.9430 H     1 <1>   0.1500 
 36 H        4.2340    -3.1450    -0.1920 H     1 <1>   0.0800 
 37 H        3.7190    -2.5810    -1.7520 H     1 <1>   0.0800 
 38 H        5.2910    -0.1090     0.9770 H     1 <1>   0.3700 
 39 H       -4.8000    -0.4850    -2.0070 H     1 <1>   0.0800 
 40 H       -4.1700    -1.2900    -0.5750 H     1 <1>   0.0800 
 41 H       -3.0730    -0.7990    -1.8810 H     1 <1>   0.0800 
 42 H        5.9860     1.5810    -1.4180 H     1 <1>   0.1000 
 43 H       -5.1170     4.2480    -0.0570 H     1 <1>   0.0800 
 44 H       -5.2340     2.5490     0.3940 H     1 <1>   0.0800 
 45 H       -4.5650     3.0130    -1.1800 H     1 <1>   0.0800 
 46 H        8.3560     1.3500    -0.5790 H     1 <1>   0.1000 
 47 H        7.7940     0.2620     0.7270 H     1 <1>   0.1000 
 48 H        6.3090     2.1330     1.6150 H     1 <1>   0.1000 
 49 H        6.8920     3.1970     0.2980 H     1 <1>   0.1000 
@<TRIPOS>BOND
  1   1   2  2   
  2   1   3  2   
  3   1   4  am  
  4   1   5  1   
  5   4   6  1   
  6   4   7  1   
  7   5   8  ar  
  8   5   9  ar  
  9   6  10  1   
 10   6  26  1   
 11   6  27  1   
 12   7  11  1   
 13   7  28  1   
 14   7  29  1   
 15   8  12  ar  
 16   8  30  1   
 17   9  13  ar  
 18   9  31  1   
 19  10  14  1   
 20  10  15  1   
 21  10  32  1   
 22  11  15  1   
 23  11  33  1   
 24  11  34  1   
 25  12  16  1   
 26  12  17  ar  
 27  13  17  ar  
 28  13  35  1   
 29  14  18  2   
 30  14  19  am  
 31  15  36  1   
 32  15  37  1   
 33  16  20  1   
 34  17  21  1   
 35  19  22  1   
 36  19  38  1   
 37  20  39  1   
 38  20  40  1   
 39  20  41  1   
 40  21  23  1   
 41  22  24  1   
 42  22  25  1   
 43  22  42  1   
 44  23  43  1   
 45  23  44  1   
 46  23  45  1   
 47  24  25  1   
 48  24  46  1   
 49  24  47  1   
 50  25  48  1   
 51  25  49  1   
@<TRIPOS>SUBSTRUCTURE
  1 ****   6 GROUP 4 **** **** 0

# MOE 2024.06 (io_trps.svl 2023.06)
