@<TRIPOS>MOLECULE
2-(4,6-Dimethyl-pyrimidin-2-yl)-5-trifluoromethyl-2,4-dihydro-pyrazol-3-one
27 28 1 0 0 
SMALL
USER_CHARGES


@<TRIPOS>ATOM
  1 F        1.7630    -0.5120     2.1000 F     1 <1>  -0.3400 
  2 C        2.2900    -0.5450     0.8810 C.3   1 <1>   1.0810 
  3 F        3.5350    -0.0960     1.0020 F     1 <1>  -0.3400 
  4 F        1.6420     0.3720     0.1700 F     1 <1>  -0.3400 
  5 C        2.2430    -1.9310     0.2090 C.2   1 <1>   0.3280 
  6 N        1.7770    -3.0250     0.6550 N.2   1 <1>  -0.5120 
  7 C        2.8280    -2.0480    -1.1880 C.3   1 <1>  -0.0380 
  8 N        1.9570    -4.0130    -0.3110 N.am  1 <1>  -0.1150 
  9 C        2.5700    -3.5080    -1.4210 C.2   1 <1>   0.5690 
 10 C        1.5750    -5.3490    -0.1940 C.ar  1 <1>   0.7370 
 11 O        2.8790    -4.0720    -2.4410 O.2   1 <1>  -0.5700 
 12 N        2.4740    -6.1860     0.3250 N.ar  1 <1>  -0.6200 
 13 N        0.3470    -5.6610    -0.6090 N.ar  1 <1>  -0.6200 
 14 C        2.1060    -7.4390     0.4230 C.ar  1 <1>   0.1670 
 15 C        0.0040    -6.9200    -0.5010 C.ar  1 <1>   0.1660 
 16 C        0.8620    -7.8610     0.0170 C.ar  1 <1>  -0.1500 
 17 C        3.1140    -8.4060     1.0050 C.3   1 <1>  -0.0960 
 18 C       -1.3850    -7.2940    -0.9720 C.3   1 <1>  -0.0960 
 19 H        3.8820    -1.8420    -1.2050 H     1 <1>   0.0800 
 20 H        2.2950    -1.4500    -1.9020 H     1 <1>   0.0800 
 21 H        0.5710    -8.8900     0.1010 H     1 <1>   0.1500 
 22 H        4.0030    -8.4030     0.4010 H     1 <1>   0.0800 
 23 H        2.7190    -9.4040     1.0400 H     1 <1>   0.0800 
 24 H        3.3730    -8.0980     2.0020 H     1 <1>   0.0800 
 25 H       -1.4890    -7.0460    -2.0130 H     1 <1>   0.0800 
 26 H       -2.1160    -6.7420    -0.4100 H     1 <1>   0.0800 
 27 H       -1.5680    -8.3450    -0.8440 H     1 <1>   0.0800 
@<TRIPOS>BOND
  1   1   2  1   
  2   2   3  1   
  3   2   4  1   
  4   2   5  1   
  5   5   6  2   
  6   5   7  1   
  7   6   8  1   
  8   7   9  1   
  9   7  19  1   
 10   7  20  1   
 11   8   9  am  
 12   8  10  1   
 13   9  11  2   
 14  10  12  ar  
 15  10  13  ar  
 16  12  14  ar  
 17  13  15  ar  
 18  14  16  ar  
 19  14  17  1   
 20  15  16  ar  
 21  15  18  1   
 22  16  21  1   
 23  17  22  1   
 24  17  23  1   
 25  17  24  1   
 26  18  25  1   
 27  18  26  1   
 28  18  27  1   
@<TRIPOS>SUBSTRUCTURE
  1 ****   8 GROUP 4 **** **** 0

# MOE 2024.06 (io_trps.svl 2023.06)
