@<TRIPOS>MOLECULE
3-[1-(2-Methoxy-ethyl)-5-p-tolyl-1H-pyrrol-2-yl]-propionic acid
41 42 1 0 0 
SMALL
USER_CHARGES


@<TRIPOS>ATOM
  1 O       -0.9920    -0.6840     0.8670 O.co2 1 <1>  -0.9000 
  2 C       -1.6530    -1.3280     0.0490 C.2   1 <1>   0.9060 
  3 O       -1.3010    -2.4310    -0.3790 O.co2 1 <1>  -0.9000 
  4 C       -2.9610    -0.7590    -0.4310 C.3   1 <1>  -0.2660 
  5 C       -4.1280    -1.4790     0.2460 C.3   1 <1>   0.0200 
  6 C       -5.4950    -0.9920    -0.2320 C.2   1 <1>  -0.3320 
  7 N       -6.6630    -1.5900     0.1410 N.pl3 1 <1>   0.0480 
  8 C       -5.7790     0.0470    -1.0630 C.2   1 <1>  -0.1500 
  9 C       -7.6950    -0.9250    -0.4700 C.2   1 <1>  -0.2050 
 10 C       -6.7970    -2.8060     0.9760 C.3   1 <1>   0.0960 
 11 C       -7.1620     0.0880    -1.2140 C.2   1 <1>  -0.1500 
 12 C       -9.0830    -1.2820    -0.3350 C.ar  1 <1>   0.0530 
 13 C       -6.7720    -4.0400     0.0820 C.3   1 <1>   0.1200 
 14 C       -9.7680    -1.0780     0.8570 C.ar  1 <1>  -0.1500 
 15 C       -9.7760    -1.8460    -1.3990 C.ar  1 <1>  -0.1500 
 16 O       -6.9330    -5.1690     0.8840 O.3   1 <1>  -0.5600 
 17 C      -11.0970    -1.4360     0.9880 C.ar  1 <1>  -0.1500 
 18 C      -11.1060    -2.2050    -1.2750 C.ar  1 <1>  -0.1500 
 19 C       -6.8390    -6.3660     0.1840 C.3   1 <1>   0.0400 
 20 C      -11.7750    -2.0060    -0.0780 C.ar  1 <1>  -0.1440 
 21 C      -13.2340    -2.3990     0.0620 C.3   1 <1>  -0.0970 
 22 H       -3.0100    -0.8900    -1.4940 H     1 <1>   0.0800 
 23 H       -2.9830     0.2880    -0.2010 H     1 <1>   0.0800 
 24 H       -4.0490    -1.3380     1.3100 H     1 <1>   0.0800 
 25 H       -4.0320    -2.5320     0.0440 H     1 <1>   0.0800 
 26 H       -5.0840     0.7220    -1.5320 H     1 <1>   0.1500 
 27 H       -7.7250    -2.7650     1.5140 H     1 <1>   0.0800 
 28 H       -5.9860    -2.8440     1.6780 H     1 <1>   0.0800 
 29 H       -7.7000     0.7990    -1.8160 H     1 <1>   0.1500 
 30 H       -5.8260    -4.1080    -0.4300 H     1 <1>   0.0800 
 31 H       -7.5810    -4.0050    -0.6270 H     1 <1>   0.0800 
 32 H       -9.2450    -0.6310     1.6830 H     1 <1>   0.1500 
 33 H       -9.2590    -2.0000    -2.3290 H     1 <1>   0.1500 
 34 H      -11.6030    -1.2680     1.9220 H     1 <1>   0.1500 
 35 H      -11.6190    -2.6400    -2.1150 H     1 <1>   0.1500 
 36 H       -6.9830    -7.1730     0.8810 H     1 <1>   0.0800 
 37 H       -5.8610    -6.4420    -0.2600 H     1 <1>   0.0800 
 38 H       -7.6040    -6.3970    -0.5720 H     1 <1>   0.0800 
 39 H      -13.8610    -1.5690    -0.2100 H     1 <1>   0.0800 
 40 H      -13.4500    -2.6820     1.0760 H     1 <1>   0.0800 
 41 H      -13.4610    -3.2320    -0.5780 H     1 <1>   0.0800 
@<TRIPOS>BOND
  1   1   2  ar  
  2   2   3  ar  
  3   2   4  1   
  4   4   5  1   
  5   4  22  1   
  6   4  23  1   
  7   5   6  1   
  8   5  24  1   
  9   5  25  1   
 10   6   7  1   
 11   6   8  2   
 12   7   9  1   
 13   7  10  1   
 14   8  11  1   
 15   8  26  1   
 16   9  11  2   
 17   9  12  1   
 18  10  13  1   
 19  10  27  1   
 20  10  28  1   
 21  11  29  1   
 22  12  14  ar  
 23  12  15  ar  
 24  13  16  1   
 25  13  30  1   
 26  13  31  1   
 27  14  17  ar  
 28  14  32  1   
 29  15  18  ar  
 30  15  33  1   
 31  16  19  1   
 32  17  20  ar  
 33  17  34  1   
 34  18  20  ar  
 35  18  35  1   
 36  19  36  1   
 37  19  37  1   
 38  19  38  1   
 39  20  21  1   
 40  21  39  1   
 41  21  40  1   
 42  21  41  1   
@<TRIPOS>SUBSTRUCTURE
  1 ****   7 GROUP 4 **** **** 0

# MOE 2024.06 (io_trps.svl 2023.06)
