@<TRIPOS>MOLECULE
N-Allyl-2-[4-(morpholine-4-sulfonyl)-phenoxy]-acetamide
43 44 1 0 0 
SMALL
USER_CHARGES


@<TRIPOS>ATOM
  1 S        0.0430    -0.1030    -1.3870 S.o2  1 <1>   1.4470 
  2 O       -0.3000    -1.4400    -1.8220 O.2   1 <1>  -0.6500 
  3 O       -0.7110     1.0360    -1.8640 O.2   1 <1>  -0.6500 
  4 N       -0.0780    -0.0940     0.3040 N.am  1 <1>  -0.8490 
  5 C        1.8090     0.1870    -1.7100 C.ar  1 <1>  -0.0090 
  6 C        0.2370     1.1980     0.9290 C.3   1 <1>   0.1960 
  7 C        0.6230    -1.2010     0.9700 C.3   1 <1>   0.1960 
  8 C        2.3130     1.4770    -1.8470 C.ar  1 <1>  -0.1500 
  9 C        2.7090    -0.8700    -1.8040 C.ar  1 <1>  -0.1500 
 10 C        0.0200     1.1420     2.4520 C.3   1 <1>   0.1200 
 11 C        0.3910    -1.1660     2.4910 C.3   1 <1>   0.1200 
 12 C        3.6610     1.7100    -2.0600 C.ar  1 <1>  -0.1500 
 13 C        4.0580    -0.6480    -2.0160 C.ar  1 <1>  -0.1500 
 14 O        0.7470     0.0850     3.0110 O.3   1 <1>  -0.5600 
 15 C        4.5460     0.6400    -2.1440 C.ar  1 <1>   0.0820 
 16 O        5.8800     0.7680    -2.3510 O.3   1 <1>  -0.3630 
 17 C        6.4890     2.0340    -2.5780 C.3   1 <1>   0.1810 
 18 C        6.5880     2.8600    -1.2990 C.2   1 <1>   0.5690 
 19 O        6.3990     4.0510    -1.3610 O.2   1 <1>  -0.5700 
 20 N        6.8830     2.2420    -0.1270 N.am  1 <1>  -0.7300 
 21 C        7.0460     2.9110     1.1680 C.3   1 <1>   0.2780 
 22 C        8.1860     2.2240     1.8880 C.2   1 <1>  -0.2880 
 23 C        8.0870     1.5530     3.0400 C.2   1 <1>  -0.3000 
 24 H       -0.3970     1.9640     0.5140 H     1 <1>   0.0800 
 25 H        1.2610     1.4670     0.7370 H     1 <1>   0.0800 
 26 H        1.6810    -1.1410     0.7810 H     1 <1>   0.0800 
 27 H        0.2620    -2.1400     0.5840 H     1 <1>   0.0800 
 28 H        1.6380     2.3150    -1.7910 H     1 <1>   0.1500 
 29 H        2.3470    -1.8810    -1.7150 H     1 <1>   0.1500 
 30 H       -1.0230     1.0040     2.6790 H     1 <1>   0.0800 
 31 H        0.3570     2.0540     2.9110 H     1 <1>   0.0800 
 32 H        0.9940    -1.9100     2.9790 H     1 <1>   0.0800 
 33 H       -0.6440    -1.3540     2.7180 H     1 <1>   0.0800 
 34 H        3.9930     2.7280    -2.1560 H     1 <1>   0.1500 
 35 H        4.7400    -1.4770    -2.0880 H     1 <1>   0.1500 
 36 H        5.9290     2.5600    -3.3290 H     1 <1>   0.0800 
 37 H        7.4780     1.8530    -2.9520 H     1 <1>   0.0800 
 38 H        6.9570     1.2230    -0.1010 H     1 <1>   0.3700 
 39 H        6.1340     2.8230     1.7330 H     1 <1>   0.0800 
 40 H        7.2680     3.9560     1.0270 H     1 <1>   0.0800 
 41 H        9.1180     2.3340     1.3600 H     1 <1>   0.1500 
 42 H        8.9200     1.0740     3.5270 H     1 <1>   0.1500 
 43 H        7.1740     1.4240     3.5950 H     1 <1>   0.1500 
@<TRIPOS>BOND
  1   1   2  2   
  2   1   3  2   
  3   1   4  am  
  4   1   5  1   
  5   4   6  1   
  6   4   7  1   
  7   5   8  ar  
  8   5   9  ar  
  9   6  10  1   
 10   6  24  1   
 11   6  25  1   
 12   7  11  1   
 13   7  26  1   
 14   7  27  1   
 15   8  12  ar  
 16   8  28  1   
 17   9  13  ar  
 18   9  29  1   
 19  10  14  1   
 20  10  30  1   
 21  10  31  1   
 22  11  14  1   
 23  11  32  1   
 24  11  33  1   
 25  12  15  ar  
 26  12  34  1   
 27  13  15  ar  
 28  13  35  1   
 29  15  16  1   
 30  16  17  1   
 31  17  18  1   
 32  17  36  1   
 33  17  37  1   
 34  18  19  2   
 35  18  20  am  
 36  20  21  1   
 37  20  38  1   
 38  21  22  1   
 39  21  39  1   
 40  21  40  1   
 41  22  23  2   
 42  22  41  1   
 43  23  42  1   
 44  23  43  1   
@<TRIPOS>SUBSTRUCTURE
  1 ****   8 GROUP 4 **** **** 0

# MOE 2024.06 (io_trps.svl 2023.06)
