@<TRIPOS>MOLECULE
N-(4-Fluoro-phenyl)-4-methoxy-N-(2-oxo-2-pyrrolidin-1-yl-ethyl)-benzenesulfonami
48 50 1 0 0 
SMALL
USER_CHARGES


@<TRIPOS>ATOM
  1 S        0.5050    -1.1740     0.1140 S.o2  1 <1>   1.4470 
  2 O        0.7610    -1.0330     1.5290 O.2   1 <1>  -0.6500 
  3 O        1.3030    -2.0490    -0.7140 O.2   1 <1>  -0.6500 
  4 N        0.6130     0.4060    -0.5920 N.am  1 <1>  -0.6930 
  5 C       -1.2480    -1.5470    -0.1620 C.ar  1 <1>  -0.0090 
  6 C       -0.1840     1.4370    -0.1150 C.ar  1 <1>   0.1990 
  7 C        1.9360     0.7580    -1.1950 C.3   1 <1>   0.2570 
  8 C       -1.6770    -2.1770    -1.3250 C.ar  1 <1>  -0.1500 
  9 C       -2.2140    -1.1700     0.7650 C.ar  1 <1>  -0.1500 
 10 C       -0.0150     1.9480     1.1710 C.ar  1 <1>  -0.1500 
 11 C       -1.1720     1.9730    -0.9360 C.ar  1 <1>  -0.1500 
 12 C        2.9880     1.2070    -0.1740 C.2   1 <1>   0.5690 
 13 C       -3.0190    -2.4220    -1.5530 C.ar  1 <1>  -0.1500 
 14 C       -3.5600    -1.4100     0.5470 C.ar  1 <1>  -0.1500 
 15 C       -0.8130     2.9790     1.6320 C.ar  1 <1>  -0.1500 
 16 C       -1.9790     3.0060    -0.4900 C.ar  1 <1>  -0.1500 
 17 O        3.6610     0.3570     0.3590 O.2   1 <1>  -0.5700 
 18 N        3.1730     2.5360     0.1160 N.am  1 <1>  -0.6600 
 19 C       -3.9700    -2.0400    -0.6230 C.ar  1 <1>   0.0830 
 20 C       -1.7820     3.4900     0.7900 C.ar  1 <1>   0.1900 
 21 C        4.0960     2.9730     1.1870 C.3   1 <1>   0.1400 
 22 C        2.4730     3.6960    -0.4820 C.3   1 <1>   0.1400 
 23 O       -5.2630    -2.3100    -0.9220 O.3   1 <1>  -0.3620 
 24 F       -2.5390     4.4670     1.2180 F     1 <1>  -0.1900 
 25 C        4.0510     4.4970     1.1530 C.3   1 <1>  -0.1600 
 26 C        2.7130     4.8340     0.5010 C.3   1 <1>  -0.1600 
 27 C       -6.3090    -1.9740    -0.0380 C.3   1 <1>   0.0400 
 28 H        1.7920     1.5370    -1.9190 H     1 <1>   0.0800 
 29 H        2.3290    -0.0910    -1.7250 H     1 <1>   0.0800 
 30 H       -0.9510    -2.4800    -2.0610 H     1 <1>   0.1500 
 31 H       -1.9060    -0.6780     1.6730 H     1 <1>   0.1500 
 32 H        0.7500     1.5350     1.8070 H     1 <1>   0.1500 
 33 H       -1.3070     1.5720    -1.9250 H     1 <1>   0.1500 
 34 H       -3.3390    -2.9120    -2.4560 H     1 <1>   0.1500 
 35 H       -4.2670    -1.1000     1.2920 H     1 <1>   0.1500 
 36 H       -0.6890     3.3800     2.6230 H     1 <1>   0.1500 
 37 H       -2.7470     3.4270    -1.1140 H     1 <1>   0.1500 
 38 H        5.0900     2.5980     1.0110 H     1 <1>   0.0800 
 39 H        3.7350     2.6010     2.1320 H     1 <1>   0.0800 
 40 H        1.4220     3.5120    -0.6140 H     1 <1>   0.0800 
 41 H        2.9250     3.9270    -1.4320 H     1 <1>   0.0800 
 42 H        4.8590     4.8560     0.5390 H     1 <1>   0.0800 
 43 H        4.1470     4.9200     2.1380 H     1 <1>   0.0800 
 44 H        1.9320     4.8250     1.2420 H     1 <1>   0.0800 
 45 H        2.7220     5.7920     0.0130 H     1 <1>   0.0800 
 46 H       -7.2360    -2.2870    -0.4830 H     1 <1>   0.0800 
 47 H       -6.3150    -0.9080     0.1070 H     1 <1>   0.0800 
 48 H       -6.1590    -2.4900     0.8940 H     1 <1>   0.0800 
@<TRIPOS>BOND
  1   1   2  2   
  2   1   3  2   
  3   1   4  am  
  4   1   5  1   
  5   4   6  1   
  6   4   7  1   
  7   5   8  ar  
  8   5   9  ar  
  9   6  10  ar  
 10   6  11  ar  
 11   7  12  1   
 12   7  28  1   
 13   7  29  1   
 14   8  13  ar  
 15   8  30  1   
 16   9  14  ar  
 17   9  31  1   
 18  10  15  ar  
 19  10  32  1   
 20  11  16  ar  
 21  11  33  1   
 22  12  17  2   
 23  12  18  am  
 24  13  19  ar  
 25  13  34  1   
 26  14  19  ar  
 27  14  35  1   
 28  15  20  ar  
 29  15  36  1   
 30  16  20  ar  
 31  16  37  1   
 32  18  21  1   
 33  18  22  1   
 34  19  23  1   
 35  20  24  1   
 36  21  25  1   
 37  21  38  1   
 38  21  39  1   
 39  22  26  1   
 40  22  40  1   
 41  22  41  1   
 42  23  27  1   
 43  25  26  1   
 44  25  42  1   
 45  25  43  1   
 46  26  44  1   
 47  26  45  1   
 48  27  46  1   
 49  27  47  1   
 50  27  48  1   
@<TRIPOS>SUBSTRUCTURE
  1 ****   6 GROUP 4 **** **** 0

# MOE 2024.06 (io_trps.svl 2023.06)
