@<TRIPOS>MOLECULE
2-[4-(4-Fluoro-phenyl)-piperazin-1-yl]-N-(4-trifluoromethoxy-phenyl)-acetamide
47 49 1 0 0 
SMALL
USER_CHARGES


@<TRIPOS>ATOM
  1 F       -1.4750     0.3420    -0.7670 F     1 <1>  -0.1900 
  2 C       -2.4780    -0.4850    -0.6100 C.ar  1 <1>   0.1900 
  3 C       -3.0460    -0.6140     0.6430 C.ar  1 <1>  -0.1500 
  4 C       -2.9290    -1.2000    -1.7040 C.ar  1 <1>  -0.1500 
  5 C       -4.1060    -1.4900     0.8010 C.ar  1 <1>  -0.1500 
  6 C       -3.9890    -2.0720    -1.5290 C.ar  1 <1>  -0.1500 
  7 C       -4.5860    -2.2260    -0.2820 C.ar  1 <1>   0.1000 
  8 N       -5.6480    -3.1100    -0.1440 N.pl3 1 <1>  -0.8380 
  9 C       -5.3900    -4.3200     0.6890 C.3   1 <1>   0.2090 
 10 C       -6.9680    -2.5040     0.1930 C.3   1 <1>   0.2090 
 11 C       -6.5390    -5.3370     0.5530 C.3   1 <1>   0.1100 
 12 C       -8.1010    -3.5400     0.0630 C.3   1 <1>   0.1100 
 13 N       -7.8580    -4.7490     0.8880 N.3   1 <1>  -0.8100 
 14 C       -8.9310    -5.7780     0.7810 C.3   1 <1>   0.1710 
 15 C      -10.3350    -5.3530     1.2380 C.2   1 <1>   0.5690 
 16 O      -10.7140    -5.6870     2.3340 O.2   1 <1>  -0.5700 
 17 N      -11.1200    -4.6590     0.3510 N.am  1 <1>  -0.5470 
 18 C      -12.4230    -4.1490     0.4780 C.ar  1 <1>   0.1170 
 19 C      -13.1650    -3.9190    -0.6770 C.ar  1 <1>  -0.1500 
 20 C      -13.0010    -3.8470     1.7090 C.ar  1 <1>  -0.1500 
 21 C      -14.4470    -3.4050    -0.6090 C.ar  1 <1>  -0.1500 
 22 C      -14.2830    -3.3340     1.7850 C.ar  1 <1>  -0.1500 
 23 C      -15.0040    -3.1060     0.6240 C.ar  1 <1>   0.0830 
 24 O      -16.2590    -2.6080     0.6920 O.3   1 <1>  -0.3630 
 25 C      -16.3950    -1.2020     0.6920 C.3   1 <1>   1.3000 
 26 F      -17.6770    -0.8710     0.7300 F     1 <1>  -0.3400 
 27 F      -15.8050    -0.6560     1.7490 F     1 <1>  -0.3400 
 28 F      -15.8710    -0.6640    -0.4030 F     1 <1>  -0.3400 
 29 H       -2.6670    -0.0410     1.4690 H     1 <1>   0.1500 
 30 H       -2.4620    -1.0740    -2.6630 H     1 <1>   0.1500 
 31 H       -4.5660    -1.6110     1.7630 H     1 <1>   0.1500 
 32 H       -4.3690    -2.6460    -2.3540 H     1 <1>   0.1500 
 33 H       -5.2900    -4.0360     1.7220 H     1 <1>   0.0800 
 34 H       -4.4670    -4.7770     0.3750 H     1 <1>   0.0800 
 35 H       -7.1580    -1.6770    -0.4690 H     1 <1>   0.0800 
 36 H       -6.9490    -2.1300     1.2020 H     1 <1>   0.0800 
 37 H       -6.3420    -6.1640     1.2120 H     1 <1>   0.0800 
 38 H       -6.5490    -5.7060    -0.4580 H     1 <1>   0.0800 
 39 H       -8.1950    -3.8150    -0.9730 H     1 <1>   0.0800 
 40 H       -9.0140    -3.0670     0.3780 H     1 <1>   0.0800 
 41 H       -8.6520    -6.6190     1.3920 H     1 <1>   0.0800 
 42 H       -8.9920    -6.1260    -0.2340 H     1 <1>   0.0800 
 43 H      -10.6940    -4.5070    -0.5600 H     1 <1>   0.3700 
 44 H      -12.7420    -4.1490    -1.6370 H     1 <1>   0.1500 
 45 H      -12.4490    -4.0110     2.6170 H     1 <1>   0.1500 
 46 H      -15.0160    -3.2390    -1.5070 H     1 <1>   0.1500 
 47 H      -14.7190    -3.1140     2.7440 H     1 <1>   0.1500 
@<TRIPOS>BOND
  1   1   2  1   
  2   2   3  ar  
  3   2   4  ar  
  4   3   5  ar  
  5   3  29  1   
  6   4   6  ar  
  7   4  30  1   
  8   5   7  ar  
  9   5  31  1   
 10   6   7  ar  
 11   6  32  1   
 12   7   8  1   
 13   8   9  1   
 14   8  10  1   
 15   9  11  1   
 16   9  33  1   
 17   9  34  1   
 18  10  12  1   
 19  10  35  1   
 20  10  36  1   
 21  11  13  1   
 22  11  37  1   
 23  11  38  1   
 24  12  13  1   
 25  12  39  1   
 26  12  40  1   
 27  13  14  1   
 28  14  15  1   
 29  14  41  1   
 30  14  42  1   
 31  15  16  2   
 32  15  17  am  
 33  17  18  1   
 34  17  43  1   
 35  18  19  ar  
 36  18  20  ar  
 37  19  21  ar  
 38  19  44  1   
 39  20  22  ar  
 40  20  45  1   
 41  21  23  ar  
 42  21  46  1   
 43  22  23  ar  
 44  22  47  1   
 45  23  24  1   
 46  24  25  1   
 47  25  26  1   
 48  25  27  1   
 49  25  28  1   
@<TRIPOS>SUBSTRUCTURE
  1 ****  12 GROUP 4 **** **** 0

# MOE 2024.06 (io_trps.svl 2023.06)
