@<TRIPOS>MOLECULE
[5-(2,4-Dichloro-phenyl)-isoxazol-3-yl]-(4-methyl-piperidin-1-yl)-methanone
38 40 1 0 0 
SMALL
USER_CHARGES


@<TRIPOS>ATOM
  1 CL       0.6540     0.0180    -0.1680 Cl    1 <1>  -0.1770 
  2 C       -0.1040     1.5840    -0.3230 C.ar  1 <1>   0.1770 
  3 C        0.6500     2.7550    -0.1860 C.ar  1 <1>   0.0530 
  4 C       -1.4570     1.6090    -0.6030 C.ar  1 <1>  -0.1500 
  5 C        2.0590     2.7510     0.1150 C.2   1 <1>   0.0870 
  6 C       -0.0170     3.9690    -0.3570 C.ar  1 <1>  -0.1500 
  7 C       -2.0800     2.8300    -0.7580 C.ar  1 <1>   0.1770 
  8 O        2.5260     2.0400     1.1280 O.3   1 <1>  -0.0190 
  9 C        3.0660     3.4110    -0.4790 C.2   1 <1>  -0.1500 
 10 C       -1.3720     4.0120    -0.6400 C.ar  1 <1>  -0.1500 
 11 CL      -3.7860     2.8850    -1.1130 Cl    1 <1>  -0.1770 
 12 N        3.8190     2.2420     1.1870 N.2   1 <1>  -0.4100 
 13 C        4.1930     3.0510     0.2370 C.2   1 <1>   0.2030 
 14 C        5.5330     3.5500    -0.0520 C.2   1 <1>   0.7160 
 15 O        5.6330     4.6110    -0.6480 O.2   1 <1>  -0.5700 
 16 N        6.7010     2.8920     0.3030 N.am  1 <1>  -0.6600 
 17 C        6.7740     1.4410     0.6430 C.3   1 <1>   0.1400 
 18 C        8.0140     3.5970     0.3410 C.3   1 <1>   0.1400 
 19 C        7.7820     0.7360    -0.2710 C.3   1 <1>  -0.1600 
 20 C        9.0110     2.9040    -0.5910 C.3   1 <1>  -0.1600 
 21 C        9.1590     1.4150    -0.2440 C.3   1 <1>  -0.0800 
 22 C       10.1210     0.7260    -1.2180 C.3   1 <1>  -0.2400 
 23 H       -2.0140     0.6950    -0.7010 H     1 <1>   0.1500 
 24 H        0.5330     4.8900    -0.2600 H     1 <1>   0.1500 
 25 H        3.0480     4.0800    -1.3200 H     1 <1>   0.1500 
 26 H       -1.8810     4.9520    -0.7680 H     1 <1>   0.1500 
 27 H        5.8200     0.9630     0.5200 H     1 <1>   0.0800 
 28 H        7.0720     1.3370     1.6730 H     1 <1>   0.0800 
 29 H        8.3880     3.5790     1.3510 H     1 <1>   0.0800 
 30 H        7.9070     4.6280     0.0490 H     1 <1>   0.0800 
 31 H        7.3930     0.7370    -1.2740 H     1 <1>   0.0800 
 32 H        7.8770    -0.2890     0.0420 H     1 <1>   0.0800 
 33 H        9.9650     3.3930    -0.5090 H     1 <1>   0.0800 
 34 H        8.6700     3.0170    -1.6050 H     1 <1>   0.0800 
 35 H        9.5640     1.3320     0.7520 H     1 <1>   0.0800 
 36 H        9.7500     0.7890    -2.2260 H     1 <1>   0.0800 
 37 H       10.2360    -0.3120    -0.9580 H     1 <1>   0.0800 
 38 H       11.0890     1.1930    -1.1790 H     1 <1>   0.0800 
@<TRIPOS>BOND
  1   1   2  1   
  2   2   3  ar  
  3   2   4  ar  
  4   3   5  1   
  5   3   6  ar  
  6   4   7  ar  
  7   4  23  1   
  8   5   8  1   
  9   5   9  2   
 10   6  10  ar  
 11   6  24  1   
 12   7  10  ar  
 13   7  11  1   
 14   8  12  1   
 15   9  13  1   
 16   9  25  1   
 17  10  26  1   
 18  12  13  2   
 19  13  14  1   
 20  14  15  2   
 21  14  16  am  
 22  16  17  1   
 23  16  18  1   
 24  17  19  1   
 25  17  27  1   
 26  17  28  1   
 27  18  20  1   
 28  18  29  1   
 29  18  30  1   
 30  19  21  1   
 31  19  31  1   
 32  19  32  1   
 33  20  21  1   
 34  20  33  1   
 35  20  34  1   
 36  21  22  1   
 37  21  35  1   
 38  22  36  1   
 39  22  37  1   
 40  22  38  1   
@<TRIPOS>SUBSTRUCTURE
  1 ****  13 GROUP 4 **** **** 0

# MOE 2024.06 (io_trps.svl 2023.06)
