@<TRIPOS>MOLECULE
(4-Dimethylamino-6-morpholin-4-yl-[1,3,5]triazin-2-yl)-ethyl-cyanamide
39 40 1 0 0 
SMALL
USER_CHARGES


@<TRIPOS>ATOM
  1 O       -0.4580     0.6900    -0.1900 O.3   1 <1>  -0.5600 
  2 C       -1.6250     0.0560    -0.6430 C.3   1 <1>   0.1200 
  3 C       -0.6250     2.0590     0.0670 C.3   1 <1>   0.1200 
  4 C       -2.7630     0.1770     0.3880 C.3   1 <1>   0.2090 
  5 C       -1.6970     2.2880     1.1470 C.3   1 <1>   0.2090 
  6 N       -2.9760     1.6090     0.7610 N.pl3 1 <1>  -0.8380 
  7 C       -4.1290     2.2910     0.4410 C.ar  1 <1>   0.7200 
  8 N       -4.0400     3.5850     0.3070 N.ar  1 <1>  -0.6200 
  9 N       -5.2190     1.5910     0.2910 N.ar  1 <1>  -0.6200 
 10 C       -5.1600     4.1810    -0.0020 C.ar  1 <1>   0.8190 
 11 C       -6.2780     2.2910    -0.0150 C.ar  1 <1>   0.7200 
 12 N       -6.3080     3.5860    -0.1820 N.ar  1 <1>  -0.6200 
 13 N       -5.1290     5.5540    -0.1540 N.pl3 1 <1>  -0.6810 
 14 N       -7.4650     1.6050    -0.1800 N.pl3 1 <1>  -0.8380 
 15 C       -3.9350     6.2790     0.0030 C.1   1 <1>   0.6830 
 16 C       -6.3310     6.3570    -0.4850 C.3   1 <1>   0.1960 
 17 C       -7.6580     0.2210     0.3380 C.3   1 <1>   0.1290 
 18 C       -8.6530     2.2080    -0.8480 C.3   1 <1>   0.1290 
 19 N       -2.9900     6.9050     0.1170 N.1   1 <1>  -0.5570 
 20 C       -7.0510     6.7530     0.8020 C.3   1 <1>  -0.2400 
 21 H       -1.3900    -0.9790    -0.8140 H     1 <1>   0.0800 
 22 H       -1.9190     0.5030    -1.5760 H     1 <1>   0.0800 
 23 H       -0.9060     2.5530    -0.8470 H     1 <1>   0.0800 
 24 H        0.3210     2.4500     0.3970 H     1 <1>   0.0800 
 25 H       -2.5060    -0.3830     1.2690 H     1 <1>   0.0800 
 26 H       -3.6550    -0.2570    -0.0270 H     1 <1>   0.0800 
 27 H       -1.8360     3.3450     1.2940 H     1 <1>   0.0800 
 28 H       -1.3500     1.8770     2.0780 H     1 <1>   0.0800 
 29 H       -6.9940     5.7950    -1.1210 H     1 <1>   0.0800 
 30 H       -6.0380     7.2430    -1.0250 H     1 <1>   0.0800 
 31 H       -6.9880     0.0230     1.1570 H     1 <1>   0.0800 
 32 H       -7.4680    -0.4880    -0.4490 H     1 <1>   0.0800 
 33 H       -8.6670     0.0960     0.6910 H     1 <1>   0.0800 
 34 H       -8.3520     2.9770    -1.5380 H     1 <1>   0.0800 
 35 H       -9.3040     2.6360    -0.1070 H     1 <1>   0.0800 
 36 H       -9.1880     1.4530    -1.3980 H     1 <1>   0.0800 
 37 H       -7.3670     5.8750     1.3360 H     1 <1>   0.0800 
 38 H       -7.9200     7.3390     0.5650 H     1 <1>   0.0800 
 39 H       -6.4040     7.3400     1.4300 H     1 <1>   0.0800 
@<TRIPOS>BOND
  1   1   2  1   
  2   1   3  1   
  3   2   4  1   
  4   2  21  1   
  5   2  22  1   
  6   3   5  1   
  7   3  23  1   
  8   3  24  1   
  9   4   6  1   
 10   4  25  1   
 11   4  26  1   
 12   5   6  1   
 13   5  27  1   
 14   5  28  1   
 15   6   7  1   
 16   7   8  ar  
 17   7   9  ar  
 18   8  10  ar  
 19   9  11  ar  
 20  10  12  ar  
 21  10  13  1   
 22  11  12  ar  
 23  11  14  1   
 24  13  15  1   
 25  13  16  1   
 26  14  17  1   
 27  14  18  1   
 28  15  19  3   
 29  16  20  1   
 30  16  29  1   
 31  16  30  1   
 32  17  31  1   
 33  17  32  1   
 34  17  33  1   
 35  18  34  1   
 36  18  35  1   
 37  18  36  1   
 38  20  37  1   
 39  20  38  1   
 40  20  39  1   
@<TRIPOS>SUBSTRUCTURE
  1 ****   8 GROUP 4 **** **** 0

# MOE 2024.06 (io_trps.svl 2023.06)
