@<TRIPOS>MOLECULE
3-(2-Ethyl-imidazol-1-yl)-propylamine
27 27 1 0 0 
SMALL
USER_CHARGES


@<TRIPOS>ATOM
  1 N       -0.2170    -0.1090     0.0850 N.2   1 <1>  -0.5650 
  2 C        0.0540    -1.3740     0.1400 C.2   1 <1>   0.0060 
  3 C       -1.3720     0.0140     0.7600 C.2   1 <1>   0.0770 
  4 N       -0.8790    -2.0890     0.8190 N.pl3 1 <1>   0.0480 
  5 C        1.2950    -2.0080    -0.4850 C.3   1 <1>   0.0200 
  6 C       -1.7920    -1.1840     1.2150 C.2   1 <1>  -0.3020 
  7 C       -0.9580    -3.5440     1.0560 C.3   1 <1>   0.0960 
  8 C        2.1240    -1.0290    -1.3260 C.3   1 <1>  -0.2400 
  9 C       -1.8650    -4.1870    -0.0050 C.3   1 <1>  -0.1600 
 10 C       -2.0110    -5.6910     0.2170 C.3   1 <1>   0.3430 
 11 N       -2.9100    -6.2510    -0.8200 N.4   1 <1>  -0.8530 
 12 H       -1.8430     0.9760     0.8840 H     1 <1>   0.1500 
 13 H        0.9940    -2.8250    -1.1140 H     1 <1>   0.0800 
 14 H        1.9170    -2.3960     0.3020 H     1 <1>   0.0800 
 15 H       -2.6690    -1.4210     1.7870 H     1 <1>   0.1500 
 16 H       -1.3550    -3.7010     2.0440 H     1 <1>   0.0800 
 17 H        0.0350    -3.9570     1.0190 H     1 <1>   0.0800 
 18 H        1.5240    -0.6260    -2.1230 H     1 <1>   0.0800 
 19 H        2.9780    -1.5250    -1.7490 H     1 <1>   0.0800 
 20 H        2.4650    -0.2140    -0.7130 H     1 <1>   0.0800 
 21 H       -1.4390    -4.0020    -0.9760 H     1 <1>   0.0800 
 22 H       -2.8340    -3.7190     0.0490 H     1 <1>   0.0800 
 23 H       -2.4220    -5.8760     1.1980 H     1 <1>   0.0800 
 24 H       -1.0420    -6.1640     0.1600 H     1 <1>   0.0800 
 25 H       -3.8410    -5.8190    -0.7760 H     1 <1>   0.4500 
 26 H       -3.0310    -7.2650    -0.7020 H     1 <1>   0.4500 
 27 H       -2.5370    -6.0890    -1.7630 H     1 <1>   0.4500 
@<TRIPOS>BOND
  1   1   2  2   
  2   1   3  1   
  3   2   4  1   
  4   2   5  1   
  5   3   6  2   
  6   3  12  1   
  7   4   6  1   
  8   4   7  1   
  9   5   8  1   
 10   5  13  1   
 11   5  14  1   
 12   6  15  1   
 13   7   9  1   
 14   7  16  1   
 15   7  17  1   
 16   8  18  1   
 17   8  19  1   
 18   8  20  1   
 19   9  10  1   
 20   9  21  1   
 21   9  22  1   
 22  10  11  1   
 23  10  23  1   
 24  10  24  1   
 25  11  25  1   
 26  11  26  1   
 27  11  27  1   
@<TRIPOS>SUBSTRUCTURE
  1 ****   4 GROUP 4 **** **** 0

# MOE 2024.06 (io_trps.svl 2023.06)
