@<TRIPOS>MOLECULE
Pentanoic acid [3-(4-chloro-phenyl)-[1,2,4]oxadiazol-5-ylmethyl]-amide
36 37 1 0 0 
SMALL
USER_CHARGES


@<TRIPOS>ATOM
  1 CL       0.2400     1.8760    -0.7370 Cl    1 <1>  -0.1770 
  2 C        1.8920     2.3600    -0.4520 C.ar  1 <1>   0.1770 
  3 C        2.1580     3.6340     0.0090 C.ar  1 <1>  -0.1500 
  4 C        2.9150     1.4640    -0.6910 C.ar  1 <1>  -0.1500 
  5 C        3.4710     4.0120     0.2330 C.ar  1 <1>  -0.1500 
  6 C        4.2230     1.8530    -0.4640 C.ar  1 <1>  -0.1500 
  7 C        4.5360     3.1340     0.0040 C.ar  1 <1>   0.0540 
  8 C        5.9160     3.5300     0.2390 C.2   1 <1>   0.4620 
  9 N        6.9480     2.7760     0.0930 N.2   1 <1>  -0.4100 
 10 N        6.2570     4.7580     0.6450 N.2   1 <1>  -0.5650 
 11 O        7.9980     3.4740     0.3880 O.3   1 <1>  -0.0190 
 12 C        7.5210     4.6480     0.7080 C.2   1 <1>   0.2980 
 13 C        8.4950     5.7410     1.1210 C.3   1 <1>   0.3200 
 14 N        9.3800     6.1490    -0.0020 N.am  1 <1>  -0.7300 
 15 C        9.1430     7.0630    -0.9690 C.2   1 <1>   0.5690 
 16 O        9.9740     7.2480    -1.8190 O.2   1 <1>  -0.5700 
 17 C        7.8500     7.8610    -1.0170 C.3   1 <1>  -0.0990 
 18 C        7.9160     9.1240    -0.1430 C.3   1 <1>  -0.1600 
 19 C        6.5920     9.8960    -0.1810 C.3   1 <1>  -0.1600 
 20 C        6.6640    11.1540     0.6890 C.3   1 <1>  -0.2400 
 21 H        1.3470     4.3160     0.1890 H     1 <1>   0.1500 
 22 H        2.6860     0.4760    -1.0510 H     1 <1>   0.1500 
 23 H        3.6730     5.0060     0.5930 H     1 <1>   0.1500 
 24 H        5.0180     1.1510    -0.6520 H     1 <1>   0.1500 
 25 H        9.0990     5.3860     1.9370 H     1 <1>   0.0800 
 26 H        7.9360     6.5910     1.4690 H     1 <1>   0.0800 
 27 H       10.2440     5.6150    -0.1150 H     1 <1>   0.3700 
 28 H        7.0290     7.2380    -0.7150 H     1 <1>   0.0800 
 29 H        7.6750     8.1470    -2.0380 H     1 <1>   0.0800 
 30 H        8.7120     9.7550    -0.5030 H     1 <1>   0.0800 
 31 H        8.1450     8.8530     0.8730 H     1 <1>   0.0800 
 32 H        5.7930     9.2670     0.1730 H     1 <1>   0.0800 
 33 H        6.3680    10.1810    -1.1950 H     1 <1>   0.0800 
 34 H        6.8640    10.8940     1.7140 H     1 <1>   0.0800 
 35 H        5.7290    11.6840     0.6470 H     1 <1>   0.0800 
 36 H        7.4430    11.8090     0.3390 H     1 <1>   0.0800 
@<TRIPOS>BOND
  1   1   2  1   
  2   2   3  ar  
  3   2   4  ar  
  4   3   5  ar  
  5   3  21  1   
  6   4   6  ar  
  7   4  22  1   
  8   5   7  ar  
  9   5  23  1   
 10   6   7  ar  
 11   6  24  1   
 12   7   8  1   
 13   8   9  2   
 14   8  10  1   
 15   9  11  1   
 16  10  12  2   
 17  11  12  1   
 18  12  13  1   
 19  13  14  1   
 20  13  25  1   
 21  13  26  1   
 22  14  15  am  
 23  14  27  1   
 24  15  16  2   
 25  15  17  1   
 26  17  18  1   
 27  17  28  1   
 28  17  29  1   
 29  18  19  1   
 30  18  30  1   
 31  18  31  1   
 32  19  20  1   
 33  19  32  1   
 34  19  33  1   
 35  20  34  1   
 36  20  35  1   
 37  20  36  1   
@<TRIPOS>SUBSTRUCTURE
  1 ****  10 GROUP 4 **** **** 0

# MOE 2024.06 (io_trps.svl 2023.06)
