@<TRIPOS>MOLECULE
1-(3-Ethoxy-propyl)-5-oxo-pyrrolidine-3-carboxylic acid
31 31 1 0 0 
SMALL
USER_CHARGES


@<TRIPOS>ATOM
  1 O       -0.4910    -0.4570    -1.1300 O.2   1 <1>  -0.5700 
  2 C       -0.5140    -1.5540    -0.6220 C.2   1 <1>   0.5690 
  3 N       -1.5110    -2.0450     0.1490 N.am  1 <1>  -0.6600 
  4 C        0.5950    -2.5590    -0.7640 C.3   1 <1>  -0.0990 
  5 C       -1.2060    -3.3990     0.6580 C.3   1 <1>   0.1400 
  6 C       -2.6980    -1.2970     0.6050 C.3   1 <1>   0.1400 
  7 C       -0.0260    -3.8560    -0.2050 C.3   1 <1>  -0.1860 
  8 C       -3.9590    -1.8660    -0.0470 C.3   1 <1>  -0.1600 
  9 C        0.9270    -4.7490     0.5620 C.2   1 <1>   0.9060 
 10 C       -5.1800    -1.0320     0.3320 C.3   1 <1>   0.1200 
 11 O        2.1160    -4.7760     0.2310 O.co2 1 <1>  -0.9000 
 12 O        0.4800    -5.4370     1.4850 O.co2 1 <1>  -0.9000 
 13 O       -6.2970    -1.6260    -0.2380 O.3   1 <1>  -0.5600 
 14 C       -7.4820    -0.9440    -0.0030 C.3   1 <1>   0.1200 
 15 C       -8.6020    -1.7240    -0.6810 C.3   1 <1>  -0.2400 
 16 H        1.4310    -2.2420    -0.1680 H     1 <1>   0.0800 
 17 H        0.8980    -2.6720    -1.7880 H     1 <1>   0.0800 
 18 H       -2.0430    -4.0660     0.5500 H     1 <1>   0.0800 
 19 H       -0.9220    -3.3360     1.6960 H     1 <1>   0.0800 
 20 H       -2.5840    -0.2610     0.3320 H     1 <1>   0.0800 
 21 H       -2.7660    -1.3610     1.6770 H     1 <1>   0.0800 
 22 H       -0.4140    -4.4370    -1.0200 H     1 <1>   0.0800 
 23 H       -4.1080    -2.8780     0.2810 H     1 <1>   0.0800 
 24 H       -3.8410    -1.8490    -1.1160 H     1 <1>   0.0800 
 25 H       -5.0850    -0.0300    -0.0490 H     1 <1>   0.0800 
 26 H       -5.3090    -1.0120     1.4010 H     1 <1>   0.0800 
 27 H       -7.4030     0.0460    -0.4190 H     1 <1>   0.0800 
 28 H       -7.6480    -0.8890     1.0600 H     1 <1>   0.0800 
 29 H       -8.4170    -1.7850    -1.7390 H     1 <1>   0.0800 
 30 H       -9.5410    -1.2270    -0.5230 H     1 <1>   0.0800 
 31 H       -8.6610    -2.7150    -0.2700 H     1 <1>   0.0800 
@<TRIPOS>BOND
  1   1   2  2   
  2   2   3  am  
  3   2   4  1   
  4   3   5  1   
  5   3   6  1   
  6   4   7  1   
  7   4  16  1   
  8   4  17  1   
  9   5   7  1   
 10   5  18  1   
 11   5  19  1   
 12   6   8  1   
 13   6  20  1   
 14   6  21  1   
 15   7   9  1   
 16   7  22  1   
 17   8  10  1   
 18   8  23  1   
 19   8  24  1   
 20   9  11  ar  
 21   9  12  ar  
 22  10  13  1   
 23  10  25  1   
 24  10  26  1   
 25  13  14  1   
 26  14  15  1   
 27  14  27  1   
 28  14  28  1   
 29  15  29  1   
 30  15  30  1   
 31  15  31  1   
@<TRIPOS>SUBSTRUCTURE
  1 ****   3 GROUP 4 **** **** 0

# MOE 2024.06 (io_trps.svl 2023.06)
