@<TRIPOS>MOLECULE
2-(2,2-Dimethyl-propionylamino)-4,5,6,7-tetrahydro-benzo[b]thiophene-3-carboxyli
39 40 1 0 0 
SMALL
USER_CHARGES


@<TRIPOS>ATOM
  1 S        0.2310    -0.2490    -0.6690 S.3   1 <1>  -0.0800 
  2 C       -0.7660     1.1210    -0.2070 C.2   1 <1>   0.1040 
  3 C        1.6930     0.6830    -0.4360 C.2   1 <1>  -0.1400 
  4 N       -2.1450     0.9940    -0.1320 N.am  1 <1>  -0.4940 
  5 C        0.0000     2.2240     0.0620 C.2   1 <1>  -0.0860 
  6 C        1.4180     1.9450    -0.0690 C.2   1 <1>  -0.1810 
  7 C        3.0350     0.0160    -0.6310 C.3   1 <1>   0.0200 
  8 C       -3.0320     0.0070    -0.4810 C.2   1 <1>   0.5690 
  9 C       -0.5920     3.4850     0.4380 C.2   1 <1>   0.7160 
 10 C        2.5630     2.9160     0.2140 C.3   1 <1>   0.0210 
 11 C        4.1220     0.8860     0.0200 C.3   1 <1>  -0.1600 
 12 O       -2.6970    -1.0080    -1.0430 O.2   1 <1>  -0.5700 
 13 C       -4.5330     0.2120    -0.1450 C.3   1 <1>   0.0610 
 14 O       -1.6850     3.5460     0.9700 O.2   1 <1>  -0.5700 
 15 N       -0.0150     4.6750     0.1710 N.am  1 <1>  -0.8000 
 16 C        3.9160     2.3790    -0.2990 C.3   1 <1>  -0.1600 
 17 C       -4.8280     1.5740     0.5250 C.3   1 <1>  -0.2400 
 18 C       -5.3730     0.1330    -1.4330 C.3   1 <1>  -0.2400 
 19 C       -5.0040    -0.8950     0.8160 C.3   1 <1>  -0.2400 
 20 H       -2.5890     1.8100     0.3010 H     1 <1>   0.3700 
 21 H        3.2210    -0.0930    -1.6850 H     1 <1>   0.0800 
 22 H        3.0300    -0.9610    -0.1810 H     1 <1>   0.0800 
 23 H        2.6190     3.0760     1.2770 H     1 <1>   0.0800 
 24 H        2.3910     3.8610    -0.2630 H     1 <1>   0.0800 
 25 H        5.0910     0.5650    -0.3220 H     1 <1>   0.0800 
 26 H        4.0850     0.7500     1.0870 H     1 <1>   0.0800 
 27 H       -0.5380     5.5230     0.3840 H     1 <1>   0.3700 
 28 H        0.7450     4.7580    -0.5000 H     1 <1>   0.3700 
 29 H        4.7150     2.9560     0.1330 H     1 <1>   0.0800 
 30 H        3.9590     2.5090    -1.3670 H     1 <1>   0.0800 
 31 H       -4.2960     1.6680     1.4560 H     1 <1>   0.0800 
 32 H       -5.8790     1.6690     0.7360 H     1 <1>   0.0800 
 33 H       -4.5450     2.3880    -0.1200 H     1 <1>   0.0800 
 34 H       -5.0670     0.8960    -2.1260 H     1 <1>   0.0800 
 35 H       -6.4200     0.2590    -1.2210 H     1 <1>   0.0800 
 36 H       -5.2370    -0.8240    -1.9080 H     1 <1>   0.0800 
 37 H       -4.4360    -0.8620     1.7300 H     1 <1>   0.0800 
 38 H       -4.8580    -1.8630     0.3680 H     1 <1>   0.0800 
 39 H       -6.0470    -0.7830     1.0530 H     1 <1>   0.0800 
@<TRIPOS>BOND
  1   1   2  1   
  2   1   3  1   
  3   2   4  1   
  4   2   5  2   
  5   3   6  2   
  6   3   7  1   
  7   4   8  am  
  8   4  20  1   
  9   5   6  1   
 10   5   9  1   
 11   6  10  1   
 12   7  11  1   
 13   7  21  1   
 14   7  22  1   
 15   8  12  2   
 16   8  13  1   
 17   9  14  2   
 18   9  15  am  
 19  10  16  1   
 20  10  23  1   
 21  10  24  1   
 22  11  16  1   
 23  11  25  1   
 24  11  26  1   
 25  13  17  1   
 26  13  18  1   
 27  13  19  1   
 28  15  27  1   
 29  15  28  1   
 30  16  29  1   
 31  16  30  1   
 32  17  31  1   
 33  17  32  1   
 34  17  33  1   
 35  18  34  1   
 36  18  35  1   
 37  18  36  1   
 38  19  37  1   
 39  19  38  1   
 40  19  39  1   
@<TRIPOS>SUBSTRUCTURE
  1 ****   2 GROUP 4 **** **** 0

# MOE 2024.06 (io_trps.svl 2023.06)
