@<TRIPOS>MOLECULE
2-Benzo[1,3]dioxol-5-yl-5-methyl-7-phenyl-1,3-diaza-tricyclo[3.3.1.1*3,7*]decan-
50 55 1 0 0 
SMALL
USER_CHARGES


@<TRIPOS>ATOM
  1 O       -0.0470    -0.4030     0.4250 O.2   1 <1>  -0.5700 
  2 C        0.9750    -0.9920     0.2410 C.2   1 <1>   0.4480 
  3 C        1.0550    -2.4320    -0.2800 C.3   1 <1>   0.2040 
  4 C        2.3300    -0.3880     0.6230 C.3   1 <1>   0.0610 
  5 C       -0.2660    -3.0250    -0.8050 C.ar  1 <1>  -0.1440 
  6 C        1.6380    -3.2210     0.9030 C.3   1 <1>   0.3430 
  7 C        2.0960    -2.4610    -1.4100 C.3   1 <1>   0.1100 
  8 C        2.8530    -1.2580     1.7770 C.3   1 <1>   0.3430 
  9 C        3.2950    -0.5530    -0.5670 C.3   1 <1>   0.1100 
 10 C        2.2500     1.0920     1.0470 C.3   1 <1>  -0.2400 
 11 C       -1.0490    -2.2730    -1.6740 C.ar  1 <1>  -0.1500 
 12 C       -0.7020    -4.3060    -0.4690 C.ar  1 <1>  -0.1500 
 13 N        2.9840    -2.6800     1.3140 N.4   1 <1>  -0.9590 
 14 N        3.4050    -1.9860    -0.9090 N.3   1 <1>  -0.8100 
 15 C       -2.2300    -2.7760    -2.1890 C.ar  1 <1>  -0.1500 
 16 C       -1.8840    -4.8080    -0.9840 C.ar  1 <1>  -0.1500 
 17 C        3.9750    -2.7340     0.2190 C.3   1 <1>   0.8360 
 18 C       -2.6500    -4.0460    -1.8440 C.ar  1 <1>  -0.1500 
 19 C        4.4800    -4.1560    -0.0500 C.ar  1 <1>  -0.1440 
 20 C        5.8230    -4.3790     0.2610 C.ar  1 <1>  -0.1500 
 21 C        3.7240    -5.2270    -0.5510 C.ar  1 <1>  -0.1500 
 22 C        6.3560    -5.6370     0.0740 C.ar  1 <1>   0.0820 
 23 C        4.2800    -6.4870    -0.7340 C.ar  1 <1>  -0.1500 
 24 O        7.6030    -6.0480     0.3150 O.3   1 <1>  -0.3630 
 25 C        5.6070    -6.6650    -0.4090 C.ar  1 <1>   0.0820 
 26 C        7.6580    -7.4270    -0.0550 C.3   1 <1>   0.4000 
 27 O        6.3460    -7.7740    -0.4970 O.3   1 <1>  -0.3620 
 28 H        1.7310    -4.2580     0.6350 H     1 <1>   0.0800 
 29 H        0.9500    -3.1580     1.7310 H     1 <1>   0.0800 
 30 H        2.1860    -3.4420    -1.8350 H     1 <1>   0.0800 
 31 H        1.7690    -1.8200    -2.2140 H     1 <1>   0.0800 
 32 H        2.1660    -1.2000     2.6070 H     1 <1>   0.0800 
 33 H        3.8100    -0.8840     2.1040 H     1 <1>   0.0800 
 34 H        4.2700    -0.1610    -0.3220 H     1 <1>   0.0800 
 35 H        2.9320    -0.0010    -1.4200 H     1 <1>   0.0800 
 36 H        1.5890     1.2110     1.8890 H     1 <1>   0.0800 
 37 H        1.8610     1.6900     0.2400 H     1 <1>   0.0800 
 38 H        3.2190     1.4760     1.3160 H     1 <1>   0.0800 
 39 H       -0.7570    -1.2770    -1.9620 H     1 <1>   0.1500 
 40 H       -0.1540    -4.9530     0.1880 H     1 <1>   0.1500 
 41 H        3.3740    -3.2690     2.0590 H     1 <1>   0.4500 
 42 H       -2.8260    -2.1770    -2.8560 H     1 <1>   0.1500 
 43 H       -2.2150    -5.7980    -0.7170 H     1 <1>   0.1500 
 44 H        4.8470    -2.1820     0.5370 H     1 <1>   0.0800 
 45 H       -3.5710    -4.4370    -2.2430 H     1 <1>   0.1500 
 46 H        6.4710    -3.6080     0.6390 H     1 <1>   0.1500 
 47 H        2.6930    -5.1300    -0.8200 H     1 <1>   0.1500 
 48 H        3.7090    -7.3130    -1.1220 H     1 <1>   0.1500 
 49 H        7.9220    -8.0220     0.8010 H     1 <1>   0.0800 
 50 H        8.3570    -7.5570    -0.8630 H     1 <1>   0.0800 
@<TRIPOS>BOND
  1   1   2  2   
  2   2   3  1   
  3   2   4  1   
  4   3   5  1   
  5   3   6  1   
  6   3   7  1   
  7   4   8  1   
  8   4   9  1   
  9   4  10  1   
 10   5  11  ar  
 11   5  12  ar  
 12   6  13  1   
 13   6  28  1   
 14   6  29  1   
 15   7  14  1   
 16   7  30  1   
 17   7  31  1   
 18   8  13  1   
 19   8  32  1   
 20   8  33  1   
 21   9  14  1   
 22   9  34  1   
 23   9  35  1   
 24  10  36  1   
 25  10  37  1   
 26  10  38  1   
 27  11  15  ar  
 28  11  39  1   
 29  12  16  ar  
 30  12  40  1   
 31  13  17  1   
 32  13  41  1   
 33  14  17  1   
 34  15  18  ar  
 35  15  42  1   
 36  16  18  ar  
 37  16  43  1   
 38  17  19  1   
 39  17  44  1   
 40  18  45  1   
 41  19  20  ar  
 42  19  21  ar  
 43  20  22  ar  
 44  20  46  1   
 45  21  23  ar  
 46  21  47  1   
 47  22  24  1   
 48  22  25  ar  
 49  23  25  ar  
 50  23  48  1   
 51  24  26  1   
 52  25  27  1   
 53  26  27  1   
 54  26  49  1   
 55  26  50  1   
@<TRIPOS>SUBSTRUCTURE
  1 ****   6 GROUP 4 **** **** 0

# MOE 2024.06 (io_trps.svl 2023.06)
