@<TRIPOS>MOLECULE
Diethyl-[2-(5-ethyl-8-methyl-5H-[1,2,4]triazino[5,6-b]indol-3-ylsulfanyl)-ethyl]
50 52 1 0 0 
SMALL
USER_CHARGES


@<TRIPOS>ATOM
  1 S       -0.5220    -0.5370    -0.0830 S.3   1 <1>  -0.3320 
  2 C       -2.1460     0.2050    -0.2120 C.ar  1 <1>   0.7220 
  3 C        0.6300     0.8960     0.0560 C.3   1 <1>   0.0700 
  4 N       -2.1680     1.5590    -0.1770 N.ar  1 <1>  -0.3100 
  5 N       -3.1470    -0.6250    -0.3250 N.ar  1 <1>  -0.5670 
  6 C        2.0440     0.3300     0.2120 C.3   1 <1>   0.3430 
  7 N       -3.3050     2.1870    -0.2610 N.ar  1 <1>  -0.2560 
  8 C       -4.3070     0.0340    -0.4100 C.ar  1 <1>   0.1050 
  9 N        3.0870     1.4090     0.2750 N.4   1 <1>  -0.9590 
 10 C       -4.3930     1.4140    -0.3800 C.ar  1 <1>   0.2560 
 11 N       -5.5660    -0.4950    -0.5360 N.pl3 1 <1>   0.0480 
 12 C        4.4530     0.8360     0.1050 C.3   1 <1>   0.3430 
 13 C        2.9890     2.1920     1.5400 C.3   1 <1>   0.3430 
 14 C       -5.7680     1.7520    -0.4920 C.ar  1 <1>   0.0000 
 15 C       -6.4690     0.5530    -0.5860 C.ar  1 <1>  -0.1520 
 16 C       -5.8910    -1.9360    -0.5980 C.3   1 <1>   0.0960 
 17 C        4.6840     0.4880    -1.3610 C.3   1 <1>  -0.2400 
 18 C        3.6690     3.5430     1.3550 C.3   1 <1>  -0.2400 
 19 C       -6.4560     2.9660    -0.5200 C.ar  1 <1>  -0.1500 
 20 C       -7.8590     0.5560    -0.7050 C.ar  1 <1>  -0.1500 
 21 C       -6.2760    -2.4610     0.7890 C.3   1 <1>  -0.2400 
 22 C       -7.8300     2.9710    -0.6390 C.ar  1 <1>  -0.1430 
 23 C       -8.5260     1.7610    -0.7310 C.ar  1 <1>  -0.1500 
 24 C       -8.6060     4.2750    -0.6720 C.3   1 <1>  -0.0970 
 25 H        0.3180     1.4630     0.9140 H     1 <1>   0.0800 
 26 H        0.5250     1.4720    -0.8470 H     1 <1>   0.0800 
 27 H        2.2360    -0.3120    -0.6320 H     1 <1>   0.0800 
 28 H        2.0880    -0.2750     1.1030 H     1 <1>   0.0800 
 29 H        2.9320     2.0590    -0.5080 H     1 <1>   0.4500 
 30 H        4.5710    -0.0420     0.7210 H     1 <1>   0.0800 
 31 H        5.1950     1.5580     0.4060 H     1 <1>   0.0800 
 32 H        3.4470     1.6500     2.3530 H     1 <1>   0.0800 
 33 H        1.9550     2.3630     1.7920 H     1 <1>   0.0800 
 34 H       -5.0330    -2.4700    -0.9670 H     1 <1>   0.0800 
 35 H       -6.7020    -2.0790    -1.2890 H     1 <1>   0.0800 
 36 H        4.0280    -0.2960    -1.6930 H     1 <1>   0.0800 
 37 H        5.6940     0.1380    -1.4820 H     1 <1>   0.0800 
 38 H        4.5590     1.3550    -1.9850 H     1 <1>   0.0800 
 39 H        4.7240     3.4380     1.1790 H     1 <1>   0.0800 
 40 H        3.5460     4.1220     2.2540 H     1 <1>   0.0800 
 41 H        3.2180     4.0920     0.5470 H     1 <1>   0.0800 
 42 H       -5.8950     3.8800    -0.4460 H     1 <1>   0.1500 
 43 H       -8.4010    -0.3700    -0.7750 H     1 <1>   0.1500 
 44 H       -5.4540    -2.3360     1.4720 H     1 <1>   0.0800 
 45 H       -6.5120    -3.5080     0.7290 H     1 <1>   0.0800 
 46 H       -7.1360    -1.9360     1.1650 H     1 <1>   0.0800 
 47 H       -9.5980     1.7770    -0.8230 H     1 <1>   0.1500 
 48 H       -7.9430     5.1180    -0.5920 H     1 <1>   0.0800 
 49 H       -9.3010     4.3080     0.1480 H     1 <1>   0.0800 
 50 H       -9.1510     4.3530    -1.5950 H     1 <1>   0.0800 
@<TRIPOS>BOND
  1   1   2  1   
  2   1   3  1   
  3   2   4  ar  
  4   2   5  ar  
  5   3   6  1   
  6   3  25  1   
  7   3  26  1   
  8   4   7  ar  
  9   5   8  ar  
 10   6   9  1   
 11   6  27  1   
 12   6  28  1   
 13   7  10  ar  
 14   8  10  ar  
 15   8  11  1   
 16   9  12  1   
 17   9  13  1   
 18   9  29  1   
 19  10  14  1   
 20  11  15  1   
 21  11  16  1   
 22  12  17  1   
 23  12  30  1   
 24  12  31  1   
 25  13  18  1   
 26  13  32  1   
 27  13  33  1   
 28  14  15  ar  
 29  14  19  ar  
 30  15  20  ar  
 31  16  21  1   
 32  16  34  1   
 33  16  35  1   
 34  17  36  1   
 35  17  37  1   
 36  17  38  1   
 37  18  39  1   
 38  18  40  1   
 39  18  41  1   
 40  19  22  ar  
 41  19  42  1   
 42  20  23  ar  
 43  20  43  1   
 44  21  44  1   
 45  21  45  1   
 46  21  46  1   
 47  22  23  ar  
 48  22  24  1   
 49  23  47  1   
 50  24  48  1   
 51  24  49  1   
 52  24  50  1   
@<TRIPOS>SUBSTRUCTURE
  1 ****   4 GROUP 4 **** **** 0

# MOE 2024.06 (io_trps.svl 2023.06)
