@<TRIPOS>MOLECULE
8-[4-(4-Fluoro-phenyl)-piperazin-1-ylmethyl]-1,3-dimethyl-7-(1-methyl-2-oxo-prop
60 63 1 0 0 
SMALL
USER_CHARGES


@<TRIPOS>ATOM
  1 F       -0.4140     0.4610     0.9070 F     1 <1>  -0.1900 
  2 C       -1.0470     1.5770     0.6480 C.ar  1 <1>   0.1900 
  3 C       -2.2400     1.5200    -0.0480 C.ar  1 <1>  -0.1500 
  4 C       -0.5000     2.7700     1.0800 C.ar  1 <1>  -0.1500 
  5 C       -2.9050     2.7040    -0.3190 C.ar  1 <1>  -0.1500 
  6 C       -1.1770     3.9450     0.8000 C.ar  1 <1>  -0.1500 
  7 C       -2.3790     3.9250     0.1020 C.ar  1 <1>   0.1000 
  8 N       -3.0310     5.1230    -0.1580 N.pl3 1 <1>  -0.8380 
  9 C       -3.1430     5.5240    -1.5900 C.3   1 <1>   0.2090 
 10 C       -4.2860     5.3700     0.6000 C.3   1 <1>   0.2090 
 11 C       -3.6210     6.9840    -1.7100 C.3   1 <1>   0.1100 
 12 C       -4.7250     6.8380     0.4430 C.3   1 <1>   0.1100 
 13 N       -4.8950     7.2300    -0.9830 N.3   1 <1>  -0.8100 
 14 C       -5.2920     8.6600    -1.1100 C.3   1 <1>   0.2540 
 15 C       -6.7680     8.8840    -0.7270 C.cat 1 <1>   0.6560 
 16 N       -7.6500     7.9170    -0.9440 N.pl3 1 <1>  -0.7000 
 17 N       -7.3740     9.9260    -0.1480 N.pl3 1 <1>  -0.7640 
 18 C       -8.8590     8.3230    -0.5000 C.2   1 <1>   0.4260 
 19 C       -8.7240     9.5710     0.0080 C.2   1 <1>   0.2770 
 20 C       -6.8090    11.2570     0.2860 C.3   1 <1>   0.4950 
 21 N      -10.0460     7.6150    -0.5180 N.am  1 <1>  -0.4360 
 22 C       -9.8900    10.1960     0.5690 C.2   1 <1>   0.7030 
 23 C       -6.0170    12.0110    -0.8060 C.2   1 <1>   0.4480 
 24 C       -5.9850    11.0340     1.5570 C.3   1 <1>  -0.2400 
 25 C      -11.1630     8.2020     0.0520 C.2   1 <1>   0.6900 
 26 C      -10.1150     6.2450    -1.1080 C.3   1 <1>   0.0600 
 27 O       -9.8320    11.3120     1.0570 O.2   1 <1>  -0.5700 
 28 N      -11.0890     9.4950     0.5580 N.am  1 <1>  -0.4200 
 29 O       -5.4460    11.4490    -1.6930 O.2   1 <1>  -0.5700 
 30 C       -5.9840    13.5240    -0.7180 C.3   1 <1>  -0.1790 
 31 O      -12.2050     7.5820     0.1190 O.2   1 <1>  -0.5700 
 32 C      -12.3230    10.1120     1.1400 C.3   1 <1>   0.0600 
 33 H       -2.6340     0.5720    -0.3670 H     1 <1>   0.1500 
 34 H        0.4300     2.7760     1.6180 H     1 <1>   0.1500 
 35 H       -3.8330     2.6880    -0.8570 H     1 <1>   0.1500 
 36 H       -0.7820     4.8920     1.1190 H     1 <1>   0.1500 
 37 H       -3.8360     4.8760    -2.0960 H     1 <1>   0.0800 
 38 H       -2.1810     5.4210    -2.0610 H     1 <1>   0.0800 
 39 H       -4.1180     5.1520     1.6410 H     1 <1>   0.0800 
 40 H       -5.0620     4.7180     0.2390 H     1 <1>   0.0800 
 41 H       -3.7500     7.2150    -2.7530 H     1 <1>   0.0800 
 42 H       -2.8460     7.6250    -1.3210 H     1 <1>   0.0800 
 43 H       -3.9780     7.4600     0.9080 H     1 <1>   0.0800 
 44 H       -5.6500     6.9730     0.9750 H     1 <1>   0.0800 
 45 H       -5.1790     8.9640    -2.1360 H     1 <1>   0.0800 
 46 H       -4.6460     9.2740    -0.5110 H     1 <1>   0.0800 
 47 H       -7.3680     7.0170    -1.3450 H     1 <1>   0.4500 
 48 H       -7.6240    11.9050     0.5470 H     1 <1>   0.0800 
 49 H       -5.1080    10.4470     1.3550 H     1 <1>   0.0800 
 50 H       -6.5810    10.5420     2.3050 H     1 <1>   0.0800 
 51 H       -5.6680    11.9800     1.9560 H     1 <1>   0.0800 
 52 H       -9.5190     6.1920    -2.0020 H     1 <1>   0.0800 
 53 H      -11.1300     5.9950    -1.3700 H     1 <1>   0.0800 
 54 H       -9.7580     5.5230    -0.3940 H     1 <1>   0.0800 
 55 H       -6.9810    13.9230    -0.7720 H     1 <1>   0.0800 
 56 H       -5.4130    13.9220    -1.5390 H     1 <1>   0.0800 
 57 H       -5.5230    13.8380     0.2000 H     1 <1>   0.0800 
 58 H      -12.2580    11.1870     1.1380 H     1 <1>   0.0800 
 59 H      -12.4540     9.7700     2.1520 H     1 <1>   0.0800 
 60 H      -13.1880     9.8290     0.5640 H     1 <1>   0.0800 
@<TRIPOS>BOND
  1   1   2  1   
  2   2   3  ar  
  3   2   4  ar  
  4   3   5  ar  
  5   3  33  1   
  6   4   6  ar  
  7   4  34  1   
  8   5   7  ar  
  9   5  35  1   
 10   6   7  ar  
 11   6  36  1   
 12   7   8  1   
 13   8   9  1   
 14   8  10  1   
 15   9  11  1   
 16   9  37  1   
 17   9  38  1   
 18  10  12  1   
 19  10  39  1   
 20  10  40  1   
 21  11  13  1   
 22  11  41  1   
 23  11  42  1   
 24  12  13  1   
 25  12  43  1   
 26  12  44  1   
 27  13  14  1   
 28  14  15  1   
 29  14  45  1   
 30  14  46  1   
 31  15  16  ar  
 32  15  17  ar  
 33  16  18  1   
 34  16  47  1   
 35  17  19  1   
 36  17  20  1   
 37  18  19  2   
 38  18  21  1   
 39  19  22  1   
 40  20  23  1   
 41  20  24  1   
 42  20  48  1   
 43  21  25  am  
 44  21  26  1   
 45  22  27  2   
 46  22  28  am  
 47  23  29  2   
 48  23  30  1   
 49  24  49  1   
 50  24  50  1   
 51  24  51  1   
 52  25  28  am  
 53  25  31  2   
 54  26  52  1   
 55  26  53  1   
 56  26  54  1   
 57  28  32  1   
 58  30  55  1   
 59  30  56  1   
 60  30  57  1   
 61  32  58  1   
 62  32  59  1   
 63  32  60  1   
@<TRIPOS>SUBSTRUCTURE
  1 ****  13 GROUP 4 **** **** 0

# MOE 2024.06 (io_trps.svl 2023.06)
