@<TRIPOS>MOLECULE
7-Allyl-8-(2-methoxy-ethylamino)-1,3-dimethyl-3,7-dihydro-purine-2,6-dione
41 42 1 0 0 
SMALL
USER_CHARGES


@<TRIPOS>ATOM
  1 O        0.4090     0.2580     0.1670 O.2   1 <1>  -0.5760 
  2 C        1.4380     0.8930     0.0610 C.2   1 <1>   0.6850 
  3 N        1.3920     2.2560    -0.2140 N.am  1 <1>  -0.4270 
  4 N        2.6610     0.2570     0.2230 N.am  1 <1>  -0.4430 
  5 C        2.5520     3.0180    -0.2690 C.2   1 <1>   0.6980 
  6 C        0.0600     2.9100    -0.4120 C.3   1 <1>   0.0500 
  7 C        3.8060     1.0280     0.1690 C.2   1 <1>   0.4190 
  8 C        2.7300    -1.2110     0.4900 C.3   1 <1>   0.0500 
  9 O        2.4990     4.2160    -0.4920 O.2   1 <1>  -0.5760 
 10 C        3.8070     2.3590    -0.0590 C.2   1 <1>   0.2690 
 11 N        5.0920     0.6140     0.3300 N.pl3 1 <1>  -0.7050 
 12 N        5.1580     2.7610    -0.0280 N.pl3 1 <1>  -0.7680 
 13 C        5.8840     1.6720     0.2090 C.cat 1 <1>   1.0680 
 14 C        5.6430     4.1400    -0.2670 C.3   1 <1>   0.4860 
 15 N        7.2030     1.6260     0.3070 N.pl3 1 <1>  -0.7190 
 16 C        6.5750     4.5250     0.8630 C.2   1 <1>  -0.2960 
 17 C        8.1490     0.4940     0.4240 C.3   1 <1>   0.1580 
 18 C        7.8860     4.7640     0.7500 C.2   1 <1>  -0.3080 
 19 C        9.4290     0.8410    -0.3490 C.3   1 <1>   0.1100 
 20 O        9.6700     2.2140    -0.2330 O.3   1 <1>  -0.5660 
 21 C       10.8690     2.6210    -0.8150 C.3   1 <1>   0.0300 
 22 H       -0.6110     2.2420    -0.9240 H     1 <1>   0.0700 
 23 H        0.1530     3.8060    -1.0010 H     1 <1>   0.0700 
 24 H       -0.3630     3.1610     0.5450 H     1 <1>   0.0700 
 25 H        1.8350    -1.7010     0.1430 H     1 <1>   0.0700 
 26 H        2.8270    -1.3830     1.5470 H     1 <1>   0.0700 
 27 H        3.5670    -1.6470    -0.0250 H     1 <1>   0.0700 
 28 H        5.4140    -0.3250     0.5380 H     1 <1>   0.4430 
 29 H        4.8270     4.8390    -0.3060 H     1 <1>   0.0700 
 30 H        6.1640     4.1780    -1.2100 H     1 <1>   0.0700 
 31 H        7.7280     2.5150     0.2610 H     1 <1>   0.4430 
 32 H        6.0590     4.5970     1.8070 H     1 <1>   0.1410 
 33 H        7.7210    -0.4170     0.0430 H     1 <1>   0.0700 
 34 H        8.4000     0.3500     1.4610 H     1 <1>   0.0700 
 35 H        8.5180     5.0400     1.5800 H     1 <1>   0.1410 
 36 H        8.4510     4.7160    -0.1680 H     1 <1>   0.1410 
 37 H        9.3130     0.6040    -1.3940 H     1 <1>   0.0700 
 38 H       10.2690     0.2950     0.0480 H     1 <1>   0.0700 
 39 H       10.9660     3.6840    -0.6810 H     1 <1>   0.0700 
 40 H       10.8530     2.3870    -1.8660 H     1 <1>   0.0700 
 41 H       11.6890     2.1200    -0.3300 H     1 <1>   0.0700 
@<TRIPOS>BOND
  1   1   2  2   
  2   2   3  am  
  3   2   4  am  
  4   3   5  am  
  5   3   6  1   
  6   4   7  1   
  7   4   8  1   
  8   5   9  2   
  9   5  10  1   
 10   6  22  1   
 11   6  23  1   
 12   6  24  1   
 13   7  10  2   
 14   7  11  1   
 15   8  25  1   
 16   8  26  1   
 17   8  27  1   
 18  10  12  1   
 19  11  13  ar  
 20  11  28  1   
 21  12  13  ar  
 22  12  14  1   
 23  13  15  ar  
 24  14  16  1   
 25  14  29  1   
 26  14  30  1   
 27  15  17  1   
 28  15  31  1   
 29  16  18  2   
 30  16  32  1   
 31  17  19  1   
 32  17  33  1   
 33  17  34  1   
 34  18  35  1   
 35  18  36  1   
 36  19  20  1   
 37  19  37  1   
 38  19  38  1   
 39  20  21  1   
 40  21  39  1   
 41  21  40  1   
 42  21  41  1   
@<TRIPOS>SUBSTRUCTURE
  1 ****  12 GROUP 4 **** **** 0

# MOE 2024.06 (io_trps.svl 2023.06)
