@<TRIPOS>MOLECULE
N-Isopropyl-3,5-dimethoxy-N-(3-p-tolyl-[1,2,4]oxadiazol-5-ylmethyl)-benzamide
54 56 1 0 0 
SMALL
USER_CHARGES


@<TRIPOS>ATOM
  1 O       -1.3580     5.7430     1.8860 O.2   1 <1>  -0.5700 
  2 C       -1.0970     5.1880     0.8360 C.2   1 <1>   0.5440 
  3 N       -0.3620     5.8730    -0.1090 N.am  1 <1>  -0.6600 
  4 C       -1.5670     3.8340     0.6190 C.ar  1 <1>   0.0860 
  5 C       -0.3400     5.4800    -1.5480 C.3   1 <1>   0.2200 
  6 C        0.4210     7.0840     0.3180 C.3   1 <1>   0.3200 
  7 C       -2.9210     3.5240     0.6890 C.ar  1 <1>  -0.1500 
  8 C       -0.6800     2.7990     0.3320 C.ar  1 <1>  -0.1500 
  9 C        1.0900     5.2470    -2.0360 C.3   1 <1>  -0.2400 
 10 C       -1.0580     6.5320    -2.3920 C.3   1 <1>  -0.2400 
 11 C        1.8390     6.7280     0.7460 C.2   1 <1>   0.2980 
 12 C       -3.3840     2.2400     0.4620 C.ar  1 <1>   0.0820 
 13 C       -1.1220     1.5090     0.1000 C.ar  1 <1>   0.0820 
 14 O        2.0080     5.8450     1.6960 O.3   1 <1>  -0.0190 
 15 N        2.9070     7.2120     0.2570 N.2   1 <1>  -0.5650 
 16 O       -4.7250     2.0560     0.5460 O.3   1 <1>  -0.3630 
 17 C       -2.4810     1.2240     0.1630 C.ar  1 <1>  -0.1500 
 18 O       -0.1690     0.5860    -0.1820 O.3   1 <1>  -0.3630 
 19 N        3.2950     5.7520     1.8150 N.2   1 <1>  -0.4100 
 20 C        3.8320     6.5570     0.9680 C.2   1 <1>   0.4620 
 21 C       -5.3080     0.7810     0.3960 C.3   1 <1>   0.0400 
 22 C       -0.4890    -0.7760    -0.3600 C.3   1 <1>   0.0400 
 23 C        5.2590     6.7560     0.7740 C.ar  1 <1>   0.0540 
 24 C        6.1980     6.0460     1.5240 C.ar  1 <1>  -0.1500 
 25 C        5.7550     7.6600    -0.1680 C.ar  1 <1>  -0.1500 
 26 C        7.5570     6.2260     1.3440 C.ar  1 <1>  -0.1500 
 27 C        7.1130     7.8440    -0.3520 C.ar  1 <1>  -0.1500 
 28 C        8.0250     7.1260     0.4030 C.ar  1 <1>  -0.1440 
 29 C        9.5160     7.3280     0.2040 C.3   1 <1>  -0.0970 
 30 H       -0.8780     4.5560    -1.6750 H     1 <1>   0.0800 
 31 H       -0.0680     7.5750     1.1390 H     1 <1>   0.0800 
 32 H        0.4730     7.7920    -0.4870 H     1 <1>   0.0800 
 33 H       -3.6260     4.3000     0.9260 H     1 <1>   0.1500 
 34 H        0.3750     3.0050     0.2910 H     1 <1>   0.1500 
 35 H        1.6460     6.1660    -2.0740 H     1 <1>   0.0800 
 36 H        1.0690     4.8310    -3.0270 H     1 <1>   0.0800 
 37 H        1.5950     4.5500    -1.3910 H     1 <1>   0.0800 
 38 H       -0.5150     7.4580    -2.4180 H     1 <1>   0.0800 
 39 H       -2.0450     6.7060    -2.0010 H     1 <1>   0.0800 
 40 H       -1.1550     6.1760    -3.4020 H     1 <1>   0.0800 
 41 H       -2.8310     0.2290    -0.0170 H     1 <1>   0.1500 
 42 H       -6.3700     0.8830     0.5290 H     1 <1>   0.0800 
 43 H       -4.9080     0.1230     1.1460 H     1 <1>   0.0800 
 44 H       -5.0990     0.4150    -0.5940 H     1 <1>   0.0800 
 45 H        0.4250    -1.3120    -0.5400 H     1 <1>   0.0800 
 46 H       -1.1420    -0.8740    -1.2090 H     1 <1>   0.0800 
 47 H       -0.9580    -1.1440     0.5350 H     1 <1>   0.0800 
 48 H        5.8570     5.3400     2.2610 H     1 <1>   0.1500 
 49 H        5.0660     8.2290    -0.7670 H     1 <1>   0.1500 
 50 H        8.2510     5.6620     1.9420 H     1 <1>   0.1500 
 51 H        7.4580     8.5500    -1.0860 H     1 <1>   0.1500 
 52 H       10.0520     6.4250     0.4350 H     1 <1>   0.0800 
 53 H        9.8650     8.1150     0.8480 H     1 <1>   0.0800 
 54 H        9.7260     7.5950    -0.8160 H     1 <1>   0.0800 
@<TRIPOS>BOND
  1   1   2  2   
  2   2   3  am  
  3   2   4  1   
  4   3   5  1   
  5   3   6  1   
  6   4   7  ar  
  7   4   8  ar  
  8   5   9  1   
  9   5  10  1   
 10   5  30  1   
 11   6  11  1   
 12   6  31  1   
 13   6  32  1   
 14   7  12  ar  
 15   7  33  1   
 16   8  13  ar  
 17   8  34  1   
 18   9  35  1   
 19   9  36  1   
 20   9  37  1   
 21  10  38  1   
 22  10  39  1   
 23  10  40  1   
 24  11  14  1   
 25  11  15  2   
 26  12  16  1   
 27  12  17  ar  
 28  13  17  ar  
 29  13  18  1   
 30  14  19  1   
 31  15  20  1   
 32  16  21  1   
 33  17  41  1   
 34  18  22  1   
 35  19  20  2   
 36  20  23  1   
 37  21  42  1   
 38  21  43  1   
 39  21  44  1   
 40  22  45  1   
 41  22  46  1   
 42  22  47  1   
 43  23  24  ar  
 44  23  25  ar  
 45  24  26  ar  
 46  24  48  1   
 47  25  27  ar  
 48  25  49  1   
 49  26  28  ar  
 50  26  50  1   
 51  27  28  ar  
 52  27  51  1   
 53  28  29  1   
 54  29  52  1   
 55  29  53  1   
 56  29  54  1   
@<TRIPOS>SUBSTRUCTURE
  1 ****  14 GROUP 4 **** **** 0

# MOE 2024.06 (io_trps.svl 2023.06)
