@<TRIPOS>MOLECULE
NONAME
23 25 1 0 0 
SMALL
USER_CHARGES


@<TRIPOS>ATOM
  1 O       -1.2220    -1.1620    -1.0860 O.co2 1 <1>  -0.9000 
  2 C       -1.7370    -0.7670    -0.0340 C.2   1 <1>   0.9060 
  3 O       -1.9320    -1.5250     0.9240 O.co2 1 <1>  -0.9000 
  4 C       -2.0590     0.7090     0.1370 C.3   1 <1>  -0.1860 
  5 C       -3.3710     0.9440     0.9050 C.3   1 <1>   0.1530 
  6 C       -2.2540     1.5610    -1.1630 C.3   1 <1>  -0.1600 
  7 C       -4.5120     0.3920     0.0660 C.2   1 <1>  -0.2880 
  8 C       -3.5710     2.4180     0.5750 C.3   1 <1>  -0.1900 
  9 C       -3.6090     2.2600    -0.9380 C.3   1 <1>   0.1530 
 10 C       -4.6570     1.1660    -1.0080 C.2   1 <1>  -0.2880 
 11 C       -2.9640     3.5620     1.3150 C.3   1 <1>  -0.2000 
 12 C       -4.4620     3.3340     1.3440 C.3   1 <1>  -0.2000 
 13 H       -1.2530     1.1270     0.7080 H     1 <1>   0.0800 
 14 H       -3.3760     0.6830     1.9490 H     1 <1>   0.0800 
 15 H       -2.2850     0.9440    -2.0450 H     1 <1>   0.0800 
 16 H       -1.4600     2.2790    -1.2580 H     1 <1>   0.0800 
 17 H       -5.0160    -0.5050     0.3780 H     1 <1>   0.1500 
 18 H       -3.8100     3.1520    -1.5040 H     1 <1>   0.0800 
 19 H       -5.3270     1.0970    -1.8450 H     1 <1>   0.1500 
 20 H       -2.5720     4.3890     0.7490 H     1 <1>   0.1000 
 21 H       -2.3850     3.3490     2.1960 H     1 <1>   0.1000 
 22 H       -4.9190     2.9590     2.2440 H     1 <1>   0.1000 
 23 H       -5.1060     3.9980     0.7970 H     1 <1>   0.1000 
@<TRIPOS>BOND
  1   1   2  ar  
  2   2   3  ar  
  3   2   4  1   
  4   4   5  1   
  5   4   6  1   
  6   4  13  1   
  7   5   7  1   
  8   5   8  1   
  9   5  14  1   
 10   6   9  1   
 11   6  15  1   
 12   6  16  1   
 13   7  10  2   
 14   7  17  1   
 15   8   9  1   
 16   8  11  1   
 17   8  12  1   
 18   9  10  1   
 19   9  18  1   
 20  10  19  1   
 21  11  12  1   
 22  11  20  1   
 23  11  21  1   
 24  12  22  1   
 25  12  23  1   
@<TRIPOS>SUBSTRUCTURE
  1 ****   5 GROUP 4 **** **** 0

# MOE 2024.06 (io_trps.svl 2023.06)
