@<TRIPOS>MOLECULE
N-(1-Methyl-2-piperidin-1-ylmethyl-1H-benzoimidazol-5-yl)-butyramide
50 52 1 0 0 
SMALL
USER_CHARGES


@<TRIPOS>ATOM
  1 O        0.1440     0.4920    -1.4880 O.2   1 <1>  -0.5700 
  2 C        0.5540     1.5620    -1.1130 C.2   1 <1>   0.5690 
  3 N        1.8230     1.7770    -0.6570 N.am  1 <1>  -0.5470 
  4 C       -0.3850     2.7530    -1.1600 C.3   1 <1>  -0.0990 
  5 C        2.9000     0.8860    -0.4930 C.ar  1 <1>   0.1170 
  6 C       -0.8920     3.1500     0.2360 C.3   1 <1>  -0.1600 
  7 C        4.1890     1.3790    -0.5430 C.ar  1 <1>  -0.1500 
  8 C        2.7040    -0.4880    -0.2650 C.ar  1 <1>  -0.1500 
  9 C       -1.8430     4.3490     0.1640 C.3   1 <1>  -0.2400 
 10 C        5.2680     0.5160    -0.3770 C.ar  1 <1>   0.2270 
 11 C        3.7640    -1.3500    -0.1020 C.ar  1 <1>  -0.1500 
 12 N        6.6010     0.7900    -0.3960 N.2   1 <1>  -0.5650 
 13 C        5.0590    -0.8310    -0.1630 C.ar  1 <1>  -0.1520 
 14 C        7.1700    -0.3560    -0.2020 C.2   1 <1>   0.0060 
 15 N        6.2930    -1.3920    -0.0530 N.pl3 1 <1>   0.0480 
 16 C        8.6830    -0.5270    -0.1580 C.3   1 <1>   0.5230 
 17 C        6.5330    -2.8350     0.1590 C.3   1 <1>   0.0160 
 18 N        9.2850     0.8270    -0.0410 N.4   1 <1>  -0.9590 
 19 C       10.5900     0.9660    -0.7390 C.3   1 <1>   0.3430 
 20 C        9.3010     1.3060     1.3680 C.3   1 <1>   0.3430 
 21 C       11.0240     2.4330    -0.7260 C.3   1 <1>  -0.1600 
 22 C        9.7220     2.7760     1.4040 C.3   1 <1>  -0.1600 
 23 C       11.0650     3.0050     0.6970 C.3   1 <1>  -0.1600 
 24 H        2.0380     2.7470    -0.4380 H     1 <1>   0.3700 
 25 H       -1.2230     2.4980    -1.7850 H     1 <1>   0.0800 
 26 H        0.1230     3.5810    -1.6190 H     1 <1>   0.0800 
 27 H       -0.0590     3.3950     0.8730 H     1 <1>   0.0800 
 28 H       -1.4080     2.3120     0.6750 H     1 <1>   0.0800 
 29 H        4.3870     2.4190    -0.7140 H     1 <1>   0.1500 
 30 H        1.7010    -0.8730    -0.2160 H     1 <1>   0.1500 
 31 H       -1.3430     5.2050    -0.2530 H     1 <1>   0.0800 
 32 H       -2.1890     4.6030     1.1510 H     1 <1>   0.0800 
 33 H       -2.6980     4.1140    -0.4460 H     1 <1>   0.0800 
 34 H        3.5970    -2.3990     0.0680 H     1 <1>   0.1500 
 35 H        9.0030    -0.9970    -1.0730 H     1 <1>   0.0800 
 36 H        8.9740    -1.1420     0.6760 H     1 <1>   0.0800 
 37 H        6.0560    -3.3900    -0.6290 H     1 <1>   0.0800 
 38 H        6.1070    -3.1290     1.1020 H     1 <1>   0.0800 
 39 H        7.5840    -3.0520     0.1580 H     1 <1>   0.0800 
 40 H        8.5780     1.4170    -0.5190 H     1 <1>   0.4500 
 41 H       10.5040     0.6280    -1.7600 H     1 <1>   0.0800 
 42 H       11.3370     0.3680    -0.2410 H     1 <1>   0.0800 
 43 H        9.9940     0.7190     1.9480 H     1 <1>   0.0800 
 44 H        8.3170     1.2070     1.8000 H     1 <1>   0.0800 
 45 H       10.3450     3.0080    -1.3320 H     1 <1>   0.0800 
 46 H       12.0000     2.5160    -1.1720 H     1 <1>   0.0800 
 47 H        9.7970     3.0960     2.4290 H     1 <1>   0.0800 
 48 H        8.9560     3.3730     0.9380 H     1 <1>   0.0800 
 49 H       11.2820     4.0600     0.6600 H     1 <1>   0.0800 
 50 H       11.8520     2.5270     1.2560 H     1 <1>   0.0800 
@<TRIPOS>BOND
  1   1   2  2   
  2   2   3  am  
  3   2   4  1   
  4   3   5  1   
  5   3  24  1   
  6   4   6  1   
  7   4  25  1   
  8   4  26  1   
  9   5   7  ar  
 10   5   8  ar  
 11   6   9  1   
 12   6  27  1   
 13   6  28  1   
 14   7  10  ar  
 15   7  29  1   
 16   8  11  ar  
 17   8  30  1   
 18   9  31  1   
 19   9  32  1   
 20   9  33  1   
 21  10  12  1   
 22  10  13  ar  
 23  11  13  ar  
 24  11  34  1   
 25  12  14  2   
 26  13  15  1   
 27  14  15  1   
 28  14  16  1   
 29  15  17  1   
 30  16  18  1   
 31  16  35  1   
 32  16  36  1   
 33  17  37  1   
 34  17  38  1   
 35  17  39  1   
 36  18  19  1   
 37  18  20  1   
 38  18  40  1   
 39  19  21  1   
 40  19  41  1   
 41  19  42  1   
 42  20  22  1   
 43  20  43  1   
 44  20  44  1   
 45  21  23  1   
 46  21  45  1   
 47  21  46  1   
 48  22  23  1   
 49  22  47  1   
 50  22  48  1   
 51  23  49  1   
 52  23  50  1   
@<TRIPOS>SUBSTRUCTURE
  1 ****  10 GROUP 4 **** **** 0

# MOE 2024.06 (io_trps.svl 2023.06)
