@<TRIPOS>MOLECULE
3-(2-Ethoxy-ethyl)-1,7-dimethyl-8-(tetrahydro-furan-2-ylmethyl)-1H,8H-imidazo[2,
53 56 1 0 0 
SMALL
USER_CHARGES


@<TRIPOS>ATOM
  1 O        1.4730    -0.3370     0.8900 O.2   1 <1>  -0.5740 
  2 C        2.2450     0.5970     0.9510 C.2   1 <1>   0.6870 
  3 N        1.7630     1.9010     1.0030 N.am  1 <1>  -0.4250 
  4 N        3.6140     0.3590     0.9510 N.am  1 <1>  -0.4410 
  5 C        2.6250     2.9890     0.9710 C.2   1 <1>   0.7000 
  6 C        0.2850     2.1310     1.0800 C.3   1 <1>   0.1330 
  7 C        4.4640     1.4460     0.9410 C.2   1 <1>   0.4210 
  8 C        4.1470    -1.0350     0.9340 C.3   1 <1>   0.0530 
  9 O        2.1990     4.1320     0.9510 O.2   1 <1>  -0.5740 
 10 C        4.0250     2.7280     0.9440 C.2   1 <1>   0.2710 
 11 C       -0.3350     2.1340    -0.3160 C.3   1 <1>   0.1130 
 12 N        5.8250     1.4430     0.8980 N.pl3 1 <1>  -0.7030 
 13 N        5.1720     3.5370     0.8900 N.pl3 1 <1>  -0.6330 
 14 O       -1.6890     2.4100    -0.1810 O.3   1 <1>  -0.5640 
 15 C        6.2140     2.7160     0.8540 C.cat 1 <1>   1.0690 
 16 C        5.6730     4.8220     0.8220 C.2   1 <1>   0.2230 
 17 C       -2.3880     2.4070    -1.3800 C.3   1 <1>   0.1130 
 18 N        7.3720     3.3850     0.7700 N.pl3 1 <1>  -0.5710 
 19 C        7.0210     4.7280     0.7510 C.2   1 <1>   0.1580 
 20 C       -3.8430     2.7250    -1.0650 C.3   1 <1>  -0.2460 
 21 C        8.7500     2.7970     0.7890 C.3   1 <1>   0.1610 
 22 C        8.0460     5.8440     0.6640 C.3   1 <1>  -0.1090 
 23 C        8.9990     1.7720    -0.3340 C.3   1 <1>   0.1930 
 24 O        8.1410     0.6790    -0.2200 O.3   1 <1>  -0.5640 
 25 C       10.3910     1.1570    -0.2920 C.3   1 <1>  -0.1670 
 26 C        8.6720    -0.4060    -0.9190 C.3   1 <1>   0.1130 
 27 C       10.1860    -0.2110    -0.9220 C.3   1 <1>  -0.1670 
 28 H        0.0820     3.0720     1.5600 H     1 <1>   0.0730 
 29 H       -0.1720     1.3530     1.6680 H     1 <1>   0.0730 
 30 H        4.3090    -1.3480    -0.0830 H     1 <1>   0.0730 
 31 H        3.4460    -1.7100     1.3940 H     1 <1>   0.0730 
 32 H        5.0730    -1.0920     1.4780 H     1 <1>   0.0730 
 33 H       -0.2270     1.1680    -0.7790 H     1 <1>   0.0730 
 34 H        0.1080     2.9020    -0.9260 H     1 <1>   0.0730 
 35 H        6.5010     0.7020     0.6640 H     1 <1>   0.4450 
 36 H        5.0350     5.6930     0.8300 H     1 <1>   0.1430 
 37 H       -2.3020     1.4320    -1.8310 H     1 <1>   0.0730 
 38 H       -1.9680     3.1550    -2.0310 H     1 <1>   0.0730 
 39 H       -4.2490     1.9790    -0.4050 H     1 <1>   0.0730 
 40 H       -4.4190     2.7320    -1.9720 H     1 <1>   0.0730 
 41 H       -3.9170     3.6920    -0.6020 H     1 <1>   0.0730 
 42 H        8.9180     2.3240     1.7410 H     1 <1>   0.0730 
 43 H        9.4750     3.5850     0.6910 H     1 <1>   0.0730 
 44 H        8.7090     5.8080     1.5100 H     1 <1>   0.0730 
 45 H        7.5570     6.8020     0.6560 H     1 <1>   0.0730 
 46 H        8.6230     5.7490    -0.2390 H     1 <1>   0.0730 
 47 H        8.8340     2.2230    -1.2990 H     1 <1>   0.0730 
 48 H       10.7210     1.0430     0.7260 H     1 <1>   0.0730 
 49 H       11.1090     1.7500    -0.8310 H     1 <1>   0.0730 
 50 H        8.2800    -0.3890    -1.9220 H     1 <1>   0.0730 
 51 H        8.3840    -1.3180    -0.4250 H     1 <1>   0.0730 
 52 H       10.6770    -0.9830    -0.3550 H     1 <1>   0.0730 
 53 H       10.5550    -0.2360    -1.9330 H     1 <1>   0.0730 
@<TRIPOS>BOND
  1   1   2  2   
  2   2   3  am  
  3   2   4  am  
  4   3   5  am  
  5   3   6  1   
  6   4   7  1   
  7   4   8  1   
  8   5   9  2   
  9   5  10  1   
 10   6  11  1   
 11   6  28  1   
 12   6  29  1   
 13   7  10  2   
 14   7  12  1   
 15   8  30  1   
 16   8  31  1   
 17   8  32  1   
 18  10  13  1   
 19  11  14  1   
 20  11  33  1   
 21  11  34  1   
 22  12  15  ar  
 23  12  35  1   
 24  13  15  ar  
 25  13  16  1   
 26  14  17  1   
 27  15  18  ar  
 28  16  19  2   
 29  16  36  1   
 30  17  20  1   
 31  17  37  1   
 32  17  38  1   
 33  18  19  1   
 34  18  21  1   
 35  19  22  1   
 36  20  39  1   
 37  20  40  1   
 38  20  41  1   
 39  21  23  1   
 40  21  42  1   
 41  21  43  1   
 42  22  44  1   
 43  22  45  1   
 44  22  46  1   
 45  23  24  1   
 46  23  25  1   
 47  23  47  1   
 48  24  26  1   
 49  25  27  1   
 50  25  48  1   
 51  25  49  1   
 52  26  27  1   
 53  26  50  1   
 54  26  51  1   
 55  27  52  1   
 56  27  53  1   
@<TRIPOS>SUBSTRUCTURE
  1 ****   7 GROUP 4 **** **** 0

# MOE 2024.06 (io_trps.svl 2023.06)
