@<TRIPOS>MOLECULE
2-(Naphthalen-2-yloxy)-N-(tetrahydro-furan-2-ylmethyl)-acetamide
40 42 1 0 0 
SMALL
USER_CHARGES


@<TRIPOS>ATOM
  1 O        0.8270     3.4510    -2.4180 O.2   1 <1>  -0.5700 
  2 C        0.0750     2.9460    -1.6190 C.2   1 <1>   0.5690 
  3 N        0.4990     2.0040    -0.7360 N.am  1 <1>  -0.7300 
  4 C       -1.3830     3.3910    -1.6090 C.3   1 <1>   0.1810 
  5 C        1.8900     1.4860    -0.6310 C.3   1 <1>   0.1400 
  6 O       -2.0840     2.8610    -0.4890 O.3   1 <1>  -0.3620 
  7 C        2.8240     2.5020     0.0420 C.3   1 <1>   0.2000 
  8 C       -3.3920     3.1440    -0.2740 C.ar  1 <1>   0.0820 
  9 O        4.0470     1.8990     0.3060 O.3   1 <1>  -0.5600 
 10 C        2.3620     3.0010     1.4070 C.3   1 <1>  -0.1600 
 11 C       -3.9800     2.6070     0.8390 C.ar  1 <1>  -0.1500 
 12 C       -4.1550     3.9540    -1.1370 C.ar  1 <1>  -0.1500 
 13 C        4.7330     2.6250     1.2730 C.3   1 <1>   0.1200 
 14 C        3.6680     3.3220     2.1170 C.3   1 <1>  -0.1600 
 15 C       -5.3330     2.8420     1.1500 C.ar  1 <1>   0.0000 
 16 C       -5.4720     4.1980    -0.8580 C.ar  1 <1>  -0.1500 
 17 C       -6.0960     3.6540     0.2840 C.ar  1 <1>   0.0000 
 18 C       -5.9560     2.2980     2.2920 C.ar  1 <1>  -0.1500 
 19 C       -7.4500     3.8910     0.5940 C.ar  1 <1>  -0.1500 
 20 C       -7.2730     2.5440     2.5680 C.ar  1 <1>  -0.1500 
 21 C       -8.0290     3.3500     1.7090 C.ar  1 <1>  -0.1500 
 22 H       -0.1790     1.6520    -0.0540 H     1 <1>   0.3700 
 23 H       -1.8630     3.0450    -2.5060 H     1 <1>   0.0800 
 24 H       -1.4220     4.4630    -1.5580 H     1 <1>   0.0800 
 25 H        2.2630     1.2760    -1.6190 H     1 <1>   0.0800 
 26 H        1.8840     0.5740    -0.0620 H     1 <1>   0.0800 
 27 H        3.0070     3.3300    -0.6220 H     1 <1>   0.0800 
 28 H        1.8420     2.2140     1.9250 H     1 <1>   0.0800 
 29 H        1.7160     3.8550     1.3160 H     1 <1>   0.0800 
 30 H       -3.4020     1.9890     1.5000 H     1 <1>   0.1500 
 31 H       -3.7190     4.3870    -2.0160 H     1 <1>   0.1500 
 32 H        5.3630     3.3390     0.7700 H     1 <1>   0.0800 
 33 H        5.3340     1.9450     1.8520 H     1 <1>   0.0800 
 34 H        3.6700     2.9510     3.1260 H     1 <1>   0.0800 
 35 H        3.8530     4.3820     2.1310 H     1 <1>   0.0800 
 36 H       -6.0600     4.8150    -1.5120 H     1 <1>   0.1500 
 37 H       -5.3710     1.6800     2.9480 H     1 <1>   0.1500 
 38 H       -8.0280     4.5100    -0.0690 H     1 <1>   0.1500 
 39 H       -7.7430     2.1260     3.4410 H     1 <1>   0.1500 
 40 H       -9.0640     3.5340     1.9400 H     1 <1>   0.1500 
@<TRIPOS>BOND
  1   1   2  2   
  2   2   3  am  
  3   2   4  1   
  4   3   5  1   
  5   3  22  1   
  6   4   6  1   
  7   4  23  1   
  8   4  24  1   
  9   5   7  1   
 10   5  25  1   
 11   5  26  1   
 12   6   8  1   
 13   7   9  1   
 14   7  10  1   
 15   7  27  1   
 16   8  11  ar  
 17   8  12  ar  
 18   9  13  1   
 19  10  14  1   
 20  10  28  1   
 21  10  29  1   
 22  11  15  ar  
 23  11  30  1   
 24  12  16  ar  
 25  12  31  1   
 26  13  14  1   
 27  13  32  1   
 28  13  33  1   
 29  14  34  1   
 30  14  35  1   
 31  15  17  ar  
 32  15  18  ar  
 33  16  17  ar  
 34  16  36  1   
 35  17  19  ar  
 36  18  20  ar  
 37  18  37  1   
 38  19  21  ar  
 39  19  38  1   
 40  20  21  ar  
 41  20  39  1   
 42  21  40  1   
@<TRIPOS>SUBSTRUCTURE
  1 ****   6 GROUP 4 **** **** 0

# MOE 2024.06 (io_trps.svl 2023.06)
