@<TRIPOS>MOLECULE
[2-Methyl-4-(piperidine-1-sulfonyl)-phenoxy]-acetic acid
39 40 1 0 0 
SMALL
USER_CHARGES


@<TRIPOS>ATOM
  1 S        0.1670    -0.0940    -1.6650 S.o2  1 <1>   1.4470 
  2 O        0.6480    -1.2020    -2.4620 O.2   1 <1>  -0.6500 
  3 O       -0.6180     0.9440    -2.3010 O.2   1 <1>  -0.6500 
  4 N       -0.7970    -0.7440    -0.4320 N.am  1 <1>  -0.8490 
  5 C        1.5570     0.6300    -0.7560 C.ar  1 <1>  -0.0090 
  6 C       -1.4280     0.3020     0.3800 C.3   1 <1>   0.1960 
  7 C       -1.8010    -1.6630    -0.9760 C.3   1 <1>   0.1960 
  8 C        1.9070     1.9670    -0.9200 C.ar  1 <1>  -0.1500 
  9 C        2.2990    -0.1390     0.1330 C.ar  1 <1>  -0.1500 
 10 C       -2.1630    -0.3210     1.5710 C.3   1 <1>  -0.1600 
 11 C       -2.5630    -2.3540     0.1610 C.3   1 <1>  -0.1600 
 12 C        2.9610     2.5330    -0.2220 C.ar  1 <1>  -0.1430 
 13 C        3.3570     0.4070     0.8350 C.ar  1 <1>  -0.1500 
 14 C       -3.2130    -1.3360     1.1050 C.3   1 <1>  -0.1600 
 15 C        3.6930     1.7370     0.6520 C.ar  1 <1>   0.0820 
 16 C        3.2980     4.0050    -0.4230 C.3   1 <1>  -0.0970 
 17 O        4.7330     2.2330     1.3490 O.3   1 <1>  -0.3630 
 18 C        5.9650     2.3790     0.6420 C.3   1 <1>   0.0140 
 19 C        6.6570     3.7080     0.9050 C.2   1 <1>   0.9060 
 20 O        6.4040     4.6760     0.1730 O.co2 1 <1>  -0.9000 
 21 O        7.5110     3.7700     1.7980 O.co2 1 <1>  -0.9000 
 22 H       -2.1220     0.8680    -0.2210 H     1 <1>   0.0800 
 23 H       -0.6760     0.9790     0.7520 H     1 <1>   0.0800 
 24 H       -1.3190    -2.4190    -1.5740 H     1 <1>   0.0800 
 25 H       -2.4870    -1.1220    -1.6080 H     1 <1>   0.0800 
 26 H        1.3410     2.5750    -1.6050 H     1 <1>   0.1500 
 27 H        2.0410    -1.1750     0.2750 H     1 <1>   0.1500 
 28 H       -2.6380     0.4550     2.1430 H     1 <1>   0.0800 
 29 H       -1.4420    -0.8060     2.2060 H     1 <1>   0.0800 
 30 H       -1.8730    -2.9710     0.7110 H     1 <1>   0.0800 
 31 H       -3.3180    -2.9970    -0.2550 H     1 <1>   0.0800 
 32 H        3.9300    -0.1850     1.5240 H     1 <1>   0.1500 
 33 H       -4.0030    -0.8210     0.5860 H     1 <1>   0.0800 
 34 H       -3.6410    -1.8410     1.9540 H     1 <1>   0.0800 
 35 H        2.4520     4.5510    -0.7960 H     1 <1>   0.0800 
 36 H        4.1110     4.1040    -1.1210 H     1 <1>   0.0800 
 37 H        3.6050     4.4510     0.5070 H     1 <1>   0.0800 
 38 H        5.7820     2.2990    -0.4120 H     1 <1>   0.0800 
 39 H        6.6160     1.5860     0.9510 H     1 <1>   0.0800 
@<TRIPOS>BOND
  1   1   2  2   
  2   1   3  2   
  3   1   4  am  
  4   1   5  1   
  5   4   6  1   
  6   4   7  1   
  7   5   8  ar  
  8   5   9  ar  
  9   6  10  1   
 10   6  22  1   
 11   6  23  1   
 12   7  11  1   
 13   7  24  1   
 14   7  25  1   
 15   8  12  ar  
 16   8  26  1   
 17   9  13  ar  
 18   9  27  1   
 19  10  14  1   
 20  10  28  1   
 21  10  29  1   
 22  11  14  1   
 23  11  30  1   
 24  11  31  1   
 25  12  15  ar  
 26  12  16  1   
 27  13  15  ar  
 28  13  32  1   
 29  14  33  1   
 30  14  34  1   
 31  15  17  1   
 32  16  35  1   
 33  16  36  1   
 34  16  37  1   
 35  17  18  1   
 36  18  19  1   
 37  18  38  1   
 38  18  39  1   
 39  19  20  ar  
 40  19  21  ar  
@<TRIPOS>SUBSTRUCTURE
  1 ****   5 GROUP 4 **** **** 0

# MOE 2024.06 (io_trps.svl 2023.06)
