@<TRIPOS>MOLECULE
4-(2,6-Dimethyl-phenyl)-piperazine-1-sulfonic acid dimethylamide
43 44 1 0 0 
SMALL
USER_CHARGES


@<TRIPOS>ATOM
  1 S        0.1200     0.2560    -0.7640 S.o2  1 <1>   1.5760 
  2 O        0.3010     1.6670    -1.0230 O.2   1 <1>  -0.6500 
  3 O       -0.4480    -0.6100    -1.7730 O.2   1 <1>  -0.6500 
  4 N        1.5990    -0.3840    -0.2730 N.am  1 <1>  -0.8490 
  5 N       -0.7770     0.0680     0.6580 N.am  1 <1>  -0.8490 
  6 C        2.2630     0.4890     0.7190 C.3   1 <1>   0.1960 
  7 C        2.4880    -0.5850    -1.4330 C.3   1 <1>   0.1960 
  8 C       -2.0260     0.8270     0.6080 C.3   1 <1>   0.1160 
  9 C       -1.0540    -1.3400     0.9590 C.3   1 <1>   0.1160 
 10 C        3.6060    -0.0870     1.2050 C.3   1 <1>   0.2090 
 11 C        3.8440    -1.2030    -1.0390 C.3   1 <1>   0.2090 
 12 N        4.4830    -0.4190     0.0500 N.pl3 1 <1>  -0.8380 
 13 C        5.8580    -0.1820     0.0780 C.ar  1 <1>   0.1000 
 14 C        6.7400    -1.1380     0.5920 C.ar  1 <1>  -0.1430 
 15 C        6.3690     1.0230    -0.4120 C.ar  1 <1>  -0.1430 
 16 C        8.1010    -0.8850     0.6100 C.ar  1 <1>  -0.1500 
 17 C        6.2320    -2.4650     1.1400 C.3   1 <1>  -0.0970 
 18 C        7.7330     1.2590    -0.3860 C.ar  1 <1>  -0.1500 
 19 C        5.4430     2.0900    -0.9810 C.3   1 <1>  -0.0970 
 20 C        8.5990     0.3100     0.1230 C.ar  1 <1>  -0.1500 
 21 H        1.6190     0.6230     1.5700 H     1 <1>   0.0800 
 22 H        2.4460     1.4600     0.2900 H     1 <1>   0.0800 
 23 H        2.6660     0.3590    -1.9220 H     1 <1>   0.0800 
 24 H        2.0100    -1.2380    -2.1420 H     1 <1>   0.0800 
 25 H       -1.8130     1.8730     0.4600 H     1 <1>   0.0800 
 26 H       -2.5640     0.7200     1.5340 H     1 <1>   0.0800 
 27 H       -2.6440     0.4810    -0.2050 H     1 <1>   0.0800 
 28 H       -0.1310    -1.8900     1.0300 H     1 <1>   0.0800 
 29 H       -1.6590    -1.7810     0.1840 H     1 <1>   0.0800 
 30 H       -1.5700    -1.4220     1.9000 H     1 <1>   0.0800 
 31 H        3.4220    -0.9790     1.7770 H     1 <1>   0.0800 
 32 H        4.1030     0.6260     1.8390 H     1 <1>   0.0800 
 33 H        4.4970    -1.2270    -1.8940 H     1 <1>   0.0800 
 34 H        3.6860    -2.2120    -0.7040 H     1 <1>   0.0800 
 35 H        8.7860    -1.6150     1.0030 H     1 <1>   0.1500 
 36 H        5.5130    -2.2880     1.9180 H     1 <1>   0.0800 
 37 H        7.0350    -3.0510     1.5470 H     1 <1>   0.0800 
 38 H        5.7630    -3.0270     0.3530 H     1 <1>   0.0800 
 39 H        8.1320     2.1840    -0.7620 H     1 <1>   0.1500 
 40 H        4.7660     2.4260    -0.2170 H     1 <1>   0.0800 
 41 H        4.8720     1.6790    -1.7930 H     1 <1>   0.0800 
 42 H        5.9980     2.9350    -1.3450 H     1 <1>   0.0800 
 43 H        9.6570     0.4990     0.1400 H     1 <1>   0.1500 
@<TRIPOS>BOND
  1   1   2  2   
  2   1   3  2   
  3   1   4  am  
  4   1   5  am  
  5   4   6  1   
  6   4   7  1   
  7   5   8  1   
  8   5   9  1   
  9   6  10  1   
 10   6  21  1   
 11   6  22  1   
 12   7  11  1   
 13   7  23  1   
 14   7  24  1   
 15   8  25  1   
 16   8  26  1   
 17   8  27  1   
 18   9  28  1   
 19   9  29  1   
 20   9  30  1   
 21  10  12  1   
 22  10  31  1   
 23  10  32  1   
 24  11  12  1   
 25  11  33  1   
 26  11  34  1   
 27  12  13  1   
 28  13  14  ar  
 29  13  15  ar  
 30  14  16  ar  
 31  14  17  1   
 32  15  18  ar  
 33  15  19  1   
 34  16  20  ar  
 35  16  35  1   
 36  17  36  1   
 37  17  37  1   
 38  17  38  1   
 39  18  20  ar  
 40  18  39  1   
 41  19  40  1   
 42  19  41  1   
 43  19  42  1   
 44  20  43  1   
@<TRIPOS>SUBSTRUCTURE
  1 ****  12 GROUP 4 **** **** 0

# MOE 2024.06 (io_trps.svl 2023.06)
