@<TRIPOS>MOLECULE
7-(2-Fluoro-benzyl)-1,3-dimethyl-8-piperidin-1-ylmethyl-3,7-dihydro-purine-2,6-d
53 56 1 0 0 
SMALL
USER_CHARGES


@<TRIPOS>ATOM
  1 F        0.5170    -1.6740    -1.0520 F     1 <1>  -0.1900 
  2 C       -0.4830    -1.1550    -0.3900 C.ar  1 <1>   0.1900 
  3 C       -1.7570    -1.6690    -0.5750 C.ar  1 <1>  -0.1440 
  4 C       -0.2160    -0.1100     0.4730 C.ar  1 <1>  -0.1500 
  5 C       -2.7980    -1.0870     0.1370 C.ar  1 <1>  -0.1500 
  6 C       -2.0080    -2.8250    -1.5290 C.3   1 <1>   0.4980 
  7 C       -1.2650     0.4510     1.1790 C.ar  1 <1>  -0.1500 
  8 C       -2.5510    -0.0370     1.0080 C.ar  1 <1>  -0.1500 
  9 N       -2.1020    -4.0910    -0.7470 N.pl3 1 <1>  -0.7640 
 10 C       -3.3030    -4.6790    -0.3260 C.2   1 <1>   0.2770 
 11 C       -1.1150    -4.8470    -0.2750 C.cat 1 <1>   0.6560 
 12 C       -4.6980    -4.3750    -0.4790 C.2   1 <1>   0.7030 
 13 C       -2.9650    -5.7830     0.3820 C.2   1 <1>   0.4260 
 14 N       -1.6150    -5.8720     0.4010 N.pl3 1 <1>  -0.7000 
 15 C        0.4050    -4.6670    -0.4170 C.3   1 <1>   0.2540 
 16 O       -5.0630    -3.4090    -1.1270 O.2   1 <1>  -0.5700 
 17 N       -5.6260    -5.2100     0.1280 N.am  1 <1>  -0.4200 
 18 N       -3.8800    -6.6410     0.9630 N.am  1 <1>  -0.4360 
 19 N        1.1290    -5.9340    -0.1240 N.3   1 <1>  -0.8100 
 20 C       -5.2270    -6.3400     0.8350 C.2   1 <1>   0.6900 
 21 C       -7.0910    -4.9230     0.0040 C.3   1 <1>   0.0600 
 22 C       -3.4220    -7.8380     1.7300 C.3   1 <1>   0.0600 
 23 C        2.5060    -5.6700     0.3270 C.3   1 <1>   0.1100 
 24 C        1.1280    -6.8430    -1.2880 C.3   1 <1>   0.1100 
 25 O       -6.0600    -7.0650     1.3390 O.2   1 <1>  -0.5700 
 26 C        3.1630    -6.9780     0.7780 C.3   1 <1>  -0.1600 
 27 C        1.7300    -8.1940    -0.8910 C.3   1 <1>  -0.1600 
 28 C        3.1510    -8.0260    -0.3410 C.3   1 <1>  -0.1600 
 29 H        0.7880     0.2590     0.5880 H     1 <1>   0.1500 
 30 H       -3.8100    -1.4360     0.0200 H     1 <1>   0.1500 
 31 H       -1.2150    -2.9010    -2.2530 H     1 <1>   0.0800 
 32 H       -2.9190    -2.6520    -2.0750 H     1 <1>   0.0800 
 33 H       -1.0840     1.2680     1.8580 H     1 <1>   0.1500 
 34 H       -3.3650     0.4080     1.5560 H     1 <1>   0.1500 
 35 H       -0.9960    -6.5710     0.8260 H     1 <1>   0.4500 
 36 H        0.7040    -3.9150     0.2910 H     1 <1>   0.0800 
 37 H        0.6520    -4.3190    -1.4050 H     1 <1>   0.0800 
 38 H       -7.2660    -3.8950    -0.2620 H     1 <1>   0.0800 
 39 H       -7.5860    -5.1160     0.9410 H     1 <1>   0.0800 
 40 H       -7.5200    -5.5580    -0.7510 H     1 <1>   0.0800 
 41 H       -3.0810    -7.5350     2.7050 H     1 <1>   0.0800 
 42 H       -2.6210    -8.3300     1.2080 H     1 <1>   0.0800 
 43 H       -4.2260    -8.5450     1.8520 H     1 <1>   0.0800 
 44 H        2.4960    -4.9850     1.1590 H     1 <1>   0.0800 
 45 H        3.0810    -5.2290    -0.4710 H     1 <1>   0.0800 
 46 H        1.7060    -6.4140    -2.0910 H     1 <1>   0.0800 
 47 H        0.1230    -7.0000    -1.6400 H     1 <1>   0.0800 
 48 H        2.6360    -7.3560     1.6360 H     1 <1>   0.0800 
 49 H        4.1780    -6.7840     1.0770 H     1 <1>   0.0800 
 50 H        1.7520    -8.8430    -1.7490 H     1 <1>   0.0800 
 51 H        1.1050    -8.6540    -0.1470 H     1 <1>   0.0800 
 52 H        3.5160    -8.9680     0.0320 H     1 <1>   0.0800 
 53 H        3.8060    -7.7070    -1.1350 H     1 <1>   0.0800 
@<TRIPOS>BOND
  1   1   2  1   
  2   2   3  ar  
  3   2   4  ar  
  4   3   5  ar  
  5   3   6  1   
  6   4   7  ar  
  7   4  29  1   
  8   5   8  ar  
  9   5  30  1   
 10   6   9  1   
 11   6  31  1   
 12   6  32  1   
 13   7   8  ar  
 14   7  33  1   
 15   8  34  1   
 16   9  10  1   
 17   9  11  ar  
 18  10  12  1   
 19  10  13  2   
 20  11  14  ar  
 21  11  15  1   
 22  12  16  2   
 23  12  17  am  
 24  13  14  1   
 25  13  18  1   
 26  14  35  1   
 27  15  19  1   
 28  15  36  1   
 29  15  37  1   
 30  17  20  am  
 31  17  21  1   
 32  18  20  am  
 33  18  22  1   
 34  19  23  1   
 35  19  24  1   
 36  20  25  2   
 37  21  38  1   
 38  21  39  1   
 39  21  40  1   
 40  22  41  1   
 41  22  42  1   
 42  22  43  1   
 43  23  26  1   
 44  23  44  1   
 45  23  45  1   
 46  24  27  1   
 47  24  46  1   
 48  24  47  1   
 49  26  28  1   
 50  26  48  1   
 51  26  49  1   
 52  27  28  1   
 53  27  50  1   
 54  27  51  1   
 55  28  52  1   
 56  28  53  1   
@<TRIPOS>SUBSTRUCTURE
  1 ****  11 GROUP 4 **** **** 0

# MOE 2024.06 (io_trps.svl 2023.06)
