@<TRIPOS>MOLECULE
4-Methoxymethyl-6-methyl-2-methylamino-nicotinonitrile
27 27 1 0 0 
SMALL
USER_CHARGES


@<TRIPOS>ATOM
  1 O       -0.5580    -0.1030     0.6480 O.3   1 <1>  -0.5600 
  2 C       -1.2210    -0.6390    -0.4500 C.3   1 <1>   0.2640 
  3 C       -0.3120     1.2630     0.5570 C.3   1 <1>   0.0400 
  4 C       -1.2100    -2.1530    -0.3010 C.ar  1 <1>  -0.1440 
  5 C       -0.0710    -2.9120    -0.5280 C.ar  1 <1>   0.0730 
  6 C       -2.3500    -2.8300     0.0820 C.ar  1 <1>  -0.1500 
  7 C        1.1670    -2.3120    -0.9210 C.1   1 <1>   0.4840 
  8 C       -0.1430    -4.3060    -0.3710 C.ar  1 <1>   0.4100 
  9 C       -2.3200    -4.2070     0.2120 C.ar  1 <1>   0.1660 
 10 N        2.1530    -1.8460    -1.2580 N.1   1 <1>  -0.5570 
 11 N       -1.2520    -4.9430    -0.0100 N.ar  1 <1>  -0.6200 
 12 N        0.9620    -5.1100    -0.5960 N.pl3 1 <1>  -0.8690 
 13 C       -3.5640    -4.9600     0.6330 C.3   1 <1>  -0.0970 
 14 C        0.9950    -6.5620    -0.2820 C.3   1 <1>   0.1290 
 15 H       -0.7120    -0.3410    -1.3510 H     1 <1>   0.0800 
 16 H       -2.2260    -0.2560    -0.4600 H     1 <1>   0.0800 
 17 H        0.1790     1.5730     1.4630 H     1 <1>   0.0800 
 18 H       -1.2460     1.7880     0.4530 H     1 <1>   0.0800 
 19 H        0.3310     1.4540    -0.2850 H     1 <1>   0.0800 
 20 H       -3.2580    -2.2900     0.2850 H     1 <1>   0.1500 
 21 H        1.8810    -4.6570    -0.6540 H     1 <1>   0.4000 
 22 H       -4.3900    -4.2930     0.7940 H     1 <1>   0.0800 
 23 H       -3.3660    -5.4960     1.5430 H     1 <1>   0.0800 
 24 H       -3.8300    -5.6670    -0.1320 H     1 <1>   0.0800 
 25 H        0.1380    -7.0500    -0.7140 H     1 <1>   0.0800 
 26 H        0.9770    -6.7040     0.7850 H     1 <1>   0.0800 
 27 H        1.8880    -7.0060    -0.6870 H     1 <1>   0.0800 
@<TRIPOS>BOND
  1   1   2  1   
  2   1   3  1   
  3   2   4  1   
  4   2  15  1   
  5   2  16  1   
  6   3  17  1   
  7   3  18  1   
  8   3  19  1   
  9   4   5  ar  
 10   4   6  ar  
 11   5   7  1   
 12   5   8  ar  
 13   6   9  ar  
 14   6  20  1   
 15   7  10  3   
 16   8  11  ar  
 17   8  12  1   
 18   9  11  ar  
 19   9  13  1   
 20  12  14  1   
 21  12  21  1   
 22  13  22  1   
 23  13  23  1   
 24  13  24  1   
 25  14  25  1   
 26  14  26  1   
 27  14  27  1   
@<TRIPOS>SUBSTRUCTURE
  1 ****   5 GROUP 4 **** **** 0

# MOE 2024.06 (io_trps.svl 2023.06)
