@<TRIPOS>MOLECULE
N-(4-Chloro-phenyl)-N-(1-methyl-2-oxo-2-piperidin-1-yl-ethyl)-methanesulfonamide
43 44 1 0 0 
SMALL
USER_CHARGES


@<TRIPOS>ATOM
  1 CL       0.8770    -0.4330     2.8450 Cl    1 <1>  -0.1770 
  2 C        2.2010    -1.1580     1.9660 C.ar  1 <1>   0.1770 
  3 C        3.4920    -1.0130     2.4390 C.ar  1 <1>  -0.1500 
  4 C        1.9380    -1.8690     0.8100 C.ar  1 <1>  -0.1500 
  5 C        4.5360    -1.5930     1.7400 C.ar  1 <1>  -0.1500 
  6 C        2.9900    -2.4440     0.1180 C.ar  1 <1>  -0.1500 
  7 C        4.3000    -2.3150     0.5730 C.ar  1 <1>   0.1990 
  8 N        5.3340    -2.9230    -0.1330 N.am  1 <1>  -0.6930 
  9 S        6.1820    -4.2460     0.5850 S.o2  1 <1>   1.3330 
 10 C        6.1620    -2.0970    -1.0740 C.3   1 <1>   0.3370 
 11 O        6.7660    -3.7910     1.8210 O.2   1 <1>  -0.6500 
 12 O        7.0010    -4.8310    -0.4500 O.2   1 <1>  -0.6500 
 13 C        4.8650    -5.3900     0.9400 C.3   1 <1>  -0.1350 
 14 C        7.1500    -1.1280    -0.3650 C.2   1 <1>   0.5690 
 15 C        5.2380    -1.3610    -2.0590 C.3   1 <1>  -0.2400 
 16 O        6.6830    -0.0990     0.0800 O.2   1 <1>  -0.5700 
 17 N        8.5060    -1.3750    -0.2540 N.am  1 <1>  -0.6600 
 18 C        9.2630    -2.5210    -0.8450 C.3   1 <1>   0.1400 
 19 C        9.3810    -0.4470     0.5240 C.3   1 <1>   0.1400 
 20 C        9.9890    -3.3040     0.2550 C.3   1 <1>  -0.1600 
 21 C       10.0810    -1.2140     1.6490 C.3   1 <1>  -0.1600 
 22 C       10.8890    -2.3970     1.1030 C.3   1 <1>  -0.1600 
 23 H        3.6760    -0.4520     3.3380 H     1 <1>   0.1500 
 24 H        0.9260    -1.9650     0.4610 H     1 <1>   0.1500 
 25 H        5.5460    -1.4810     2.0970 H     1 <1>   0.1500 
 26 H        2.8040    -2.9980    -0.7840 H     1 <1>   0.1500 
 27 H        6.7270    -2.7690    -1.6860 H     1 <1>   0.0800 
 28 H        4.3360    -5.6370     0.0400 H     1 <1>   0.0800 
 29 H        4.1770    -4.9590     1.6410 H     1 <1>   0.0800 
 30 H        5.2660    -6.2900     1.3620 H     1 <1>   0.0800 
 31 H        4.6430    -0.6260    -1.5470 H     1 <1>   0.0800 
 32 H        4.5980    -2.0590    -2.5640 H     1 <1>   0.0800 
 33 H        5.8340    -0.8490    -2.7930 H     1 <1>   0.0800 
 34 H        9.9890    -2.1300    -1.5370 H     1 <1>   0.0800 
 35 H        8.6300    -3.1920    -1.3900 H     1 <1>   0.0800 
 36 H        8.8100     0.3600     0.9510 H     1 <1>   0.0800 
 37 H       10.1130    -0.0180    -0.1380 H     1 <1>   0.0800 
 38 H       10.5790    -4.0820    -0.1940 H     1 <1>   0.0800 
 39 H        9.2600    -3.7770     0.8880 H     1 <1>   0.0800 
 40 H        9.3340    -1.5700     2.3390 H     1 <1>   0.0800 
 41 H       10.7320    -0.5460     2.1840 H     1 <1>   0.0800 
 42 H       11.7010    -2.0300     0.4990 H     1 <1>   0.0800 
 43 H       11.3060    -2.9610     1.9200 H     1 <1>   0.0800 
@<TRIPOS>BOND
  1   1   2  1   
  2   2   3  ar  
  3   2   4  ar  
  4   3   5  ar  
  5   3  23  1   
  6   4   6  ar  
  7   4  24  1   
  8   5   7  ar  
  9   5  25  1   
 10   6   7  ar  
 11   6  26  1   
 12   7   8  1   
 13   8   9  am  
 14   8  10  1   
 15   9  11  2   
 16   9  12  2   
 17   9  13  1   
 18  10  14  1   
 19  10  15  1   
 20  10  27  1   
 21  13  28  1   
 22  13  29  1   
 23  13  30  1   
 24  14  16  2   
 25  14  17  am  
 26  15  31  1   
 27  15  32  1   
 28  15  33  1   
 29  17  18  1   
 30  17  19  1   
 31  18  20  1   
 32  18  34  1   
 33  18  35  1   
 34  19  21  1   
 35  19  36  1   
 36  19  37  1   
 37  20  22  1   
 38  20  38  1   
 39  20  39  1   
 40  21  22  1   
 41  21  40  1   
 42  21  41  1   
 43  22  42  1   
 44  22  43  1   
@<TRIPOS>SUBSTRUCTURE
  1 ****   8 GROUP 4 **** **** 0

# MOE 2024.06 (io_trps.svl 2023.06)
