@<TRIPOS>MOLECULE
4-(1-Ethyl-6-methyl-1H-pyrazolo[3,4-b]quinolin-3-ylcarbamoyl)-butyric acid
44 46 1 0 0 
SMALL
USER_CHARGES


@<TRIPOS>ATOM
  1 O       -2.2640     1.7370    -1.7440 O.co2 1 <1>  -0.9000 
  2 C       -2.2340     0.5490    -1.4120 C.2   1 <1>   0.9060 
  3 O       -1.7490    -0.3390    -2.1190 O.co2 1 <1>  -0.9000 
  4 C       -2.8170     0.1550    -0.0730 C.3   1 <1>  -0.2660 
  5 C       -4.0180    -0.7970    -0.2170 C.3   1 <1>  -0.1600 
  6 C       -4.5280    -1.2620     1.1570 C.3   1 <1>  -0.0990 
  7 C       -5.6970    -2.2270     1.0700 C.2   1 <1>   0.5690 
  8 O       -6.6940    -1.9800     1.7040 O.2   1 <1>  -0.5700 
  9 N       -5.5430    -3.3450     0.3140 N.am  1 <1>  -0.4930 
 10 C       -6.3780    -4.4370     0.1080 C.2   1 <1>   0.3520 
 11 N       -5.8380    -5.5770    -0.1410 N.2   1 <1>  -0.7070 
 12 C       -7.8000    -4.4740     0.0990 C.ar  1 <1>   0.0000 
 13 N       -6.8850    -6.4360    -0.2980 N.pl3 1 <1>   0.3140 
 14 C       -8.0930    -5.8100    -0.1660 C.ar  1 <1>   0.1050 
 15 C       -8.8500    -3.5960     0.2470 C.ar  1 <1>  -0.1500 
 16 C       -6.6800    -7.8700    -0.5870 C.3   1 <1>   0.0960 
 17 N       -9.2970    -6.3490    -0.2790 N.ar  1 <1>  -0.5670 
 18 C      -10.1450    -4.1000     0.1460 C.ar  1 <1>   0.0000 
 19 C       -6.5660    -8.6830     0.7090 C.3   1 <1>  -0.2400 
 20 C      -10.3170    -5.4890    -0.1180 C.ar  1 <1>   0.3100 
 21 C      -11.2920    -3.2850     0.2950 C.ar  1 <1>  -0.1500 
 22 C      -11.6360    -5.9780    -0.2170 C.ar  1 <1>  -0.1500 
 23 C      -12.5540    -3.7960     0.1900 C.ar  1 <1>  -0.1440 
 24 C      -12.7240    -5.1660    -0.0700 C.ar  1 <1>  -0.1500 
 25 C      -13.7860    -2.9250     0.3500 C.3   1 <1>  -0.0970 
 26 H       -3.1110     1.0510     0.4400 H     1 <1>   0.0800 
 27 H       -2.0320    -0.3170     0.4840 H     1 <1>   0.0800 
 28 H       -3.7090    -1.6420    -0.8080 H     1 <1>   0.0800 
 29 H       -4.8050    -0.2910    -0.7510 H     1 <1>   0.0800 
 30 H       -4.8340    -0.4030     1.7260 H     1 <1>   0.0800 
 31 H       -3.7320    -1.7430     1.6940 H     1 <1>   0.0800 
 32 H       -4.6200    -3.4950    -0.0870 H     1 <1>   0.3700 
 33 H       -8.6840    -2.5520     0.4340 H     1 <1>   0.1500 
 34 H       -5.7800    -7.9700    -1.1660 H     1 <1>   0.0800 
 35 H       -7.5080    -8.2220    -1.1740 H     1 <1>   0.0800 
 36 H       -5.7360    -8.3310     1.2950 H     1 <1>   0.0800 
 37 H       -6.4090    -9.7200     0.4770 H     1 <1>   0.0800 
 38 H       -7.4720    -8.5930     1.2830 H     1 <1>   0.0800 
 39 H      -11.1360    -2.2400     0.4970 H     1 <1>   0.1500 
 40 H      -11.7530    -7.0270    -0.4160 H     1 <1>   0.1500 
 41 H      -13.7200    -5.5640    -0.1510 H     1 <1>   0.1500 
 42 H      -13.5110    -1.9050     0.5480 H     1 <1>   0.0800 
 43 H      -14.3850    -3.2830     1.1680 H     1 <1>   0.0800 
 44 H      -14.3740    -2.9530    -0.5510 H     1 <1>   0.0800 
@<TRIPOS>BOND
  1   1   2  ar  
  2   2   3  ar  
  3   2   4  1   
  4   4   5  1   
  5   4  26  1   
  6   4  27  1   
  7   5   6  1   
  8   5  28  1   
  9   5  29  1   
 10   6   7  1   
 11   6  30  1   
 12   6  31  1   
 13   7   8  2   
 14   7   9  am  
 15   9  10  1   
 16   9  32  1   
 17  10  11  2   
 18  10  12  1   
 19  11  13  1   
 20  12  14  ar  
 21  12  15  ar  
 22  13  14  1   
 23  13  16  1   
 24  14  17  ar  
 25  15  18  ar  
 26  15  33  1   
 27  16  19  1   
 28  16  34  1   
 29  16  35  1   
 30  17  20  ar  
 31  18  20  ar  
 32  18  21  ar  
 33  19  36  1   
 34  19  37  1   
 35  19  38  1   
 36  20  22  ar  
 37  21  23  ar  
 38  21  39  1   
 39  22  24  ar  
 40  22  40  1   
 41  23  24  ar  
 42  23  25  1   
 43  24  41  1   
 44  25  42  1   
 45  25  43  1   
 46  25  44  1   
@<TRIPOS>SUBSTRUCTURE
  1 ****  12 GROUP 4 **** **** 0

# MOE 2024.06 (io_trps.svl 2023.06)
