@<TRIPOS>MOLECULE
NONAME
50 53 1 0 0 
SMALL
USER_CHARGES


@<TRIPOS>ATOM
  1 O       -2.9680    -0.8620    -2.1850 O.2   1 <1>  -0.5700 
  2 C       -3.4060     0.1670    -1.7380 C.2   1 <1>   0.4950 
  3 C       -4.1720     0.2690    -0.5520 C.2   1 <1>  -0.1240 
  4 C       -3.1440     1.4690    -2.4820 C.3   1 <1>  -0.0990 
  5 C       -4.6050     1.4160     0.0040 C.2   1 <1>  -0.0290 
  6 C       -4.6400    -0.9230     0.2790 C.3   1 <1>   0.4810 
  7 C       -3.0930     2.6930    -1.5370 C.3   1 <1>  -0.1600 
  8 N       -5.3250     1.1910     1.1540 N.am  1 <1>  -0.4690 
  9 C       -4.3090     2.7820    -0.5910 C.3   1 <1>  -0.0220 
 10 C       -3.4940    -1.8100     0.7860 C.2   1 <1>  -0.1240 
 11 C       -5.6940    -1.6840    -0.5320 C.ar  1 <1>  -0.1430 
 12 C       -5.3480    -0.1570     1.4170 C.2   1 <1>   0.5690 
 13 C       -5.9960     2.2040     2.0250 C.3   1 <1>   0.2010 
 14 C       -3.5170    -3.1460     0.4840 C.2   1 <1>   0.1770 
 15 C       -2.4870    -1.1470     1.5470 C.2   1 <1>   0.7060 
 16 C       -5.5420    -3.0450    -0.7420 C.ar  1 <1>   0.0830 
 17 C       -6.8090    -1.0450    -1.0680 C.ar  1 <1>  -0.1500 
 18 O       -5.8580    -0.6600     2.3910 O.2   1 <1>  -0.5700 
 19 C       -7.4150     2.5430     1.5780 C.2   1 <1>   0.6590 
 20 O       -4.4860    -3.7170    -0.2390 O.3   1 <1>  -0.1590 
 21 N       -2.5820    -4.0620     0.8650 N.pl3 1 <1>  -0.9000 
 22 O       -2.4700     0.0560     1.7570 O.2   1 <1>  -0.5700 
 23 O       -1.4760    -1.8590     2.0790 O.3   1 <1>  -0.4300 
 24 C       -6.4760    -3.7580    -1.4760 C.ar  1 <1>  -0.1500 
 25 C       -7.7440    -1.7560    -1.8000 C.ar  1 <1>  -0.1500 
 26 O       -8.2960     2.7330     2.3760 O.2   1 <1>  -0.5700 
 27 O       -7.6260     2.6510     0.2670 O.3   1 <1>  -0.4300 
 28 C       -0.4560    -1.2500     2.8480 C.3   1 <1>   0.0400 
 29 C       -7.5790    -3.1140    -2.0060 C.ar  1 <1>  -0.1500 
 30 C       -8.9030     2.9600    -0.2540 C.3   1 <1>   0.0400 
 31 H       -3.9250     1.6010    -3.2090 H     1 <1>   0.0800 
 32 H       -2.2110     1.3850    -3.0110 H     1 <1>   0.0800 
 33 H       -3.0130     3.5980    -2.1140 H     1 <1>   0.0800 
 34 H       -2.2040     2.6120    -0.9340 H     1 <1>   0.0800 
 35 H       -4.0880     3.4890     0.1890 H     1 <1>   0.0800 
 36 H       -5.1750     3.1270    -1.1290 H     1 <1>   0.0800 
 37 H       -5.4140     3.1040     2.0390 H     1 <1>   0.0800 
 38 H       -6.0400     1.8270     3.0310 H     1 <1>   0.0800 
 39 H       -6.9650     0.0100    -0.9210 H     1 <1>   0.1500 
 40 H       -1.7520    -3.7930     1.4080 H     1 <1>   0.4000 
 41 H       -2.6270    -5.0400     0.5690 H     1 <1>   0.4000 
 42 H       -6.3350    -4.8130    -1.6280 H     1 <1>   0.1500 
 43 H       -8.6030    -1.2530    -2.2090 H     1 <1>   0.1500 
 44 H        0.2320    -2.0110     3.1680 H     1 <1>   0.0800 
 45 H       -0.9020    -0.7710     3.7030 H     1 <1>   0.0800 
 46 H        0.0530    -0.5230     2.2380 H     1 <1>   0.0800 
 47 H       -8.3050    -3.6680    -2.5760 H     1 <1>   0.1500 
 48 H       -8.8370     2.9910    -1.3270 H     1 <1>   0.0800 
 49 H       -9.2130     3.9170     0.1280 H     1 <1>   0.0800 
 50 H       -9.5970     2.1960     0.0530 H     1 <1>   0.0800 
@<TRIPOS>BOND
  1   1   2  2   
  2   2   3  1   
  3   2   4  1   
  4   3   5  2   
  5   3   6  1   
  6   4   7  1   
  7   4  31  1   
  8   4  32  1   
  9   5   8  1   
 10   5   9  1   
 11   6  10  1   
 12   6  11  1   
 13   6  12  1   
 14   7   9  1   
 15   7  33  1   
 16   7  34  1   
 17   8  12  am  
 18   8  13  1   
 19   9  35  1   
 20   9  36  1   
 21  10  14  2   
 22  10  15  1   
 23  11  16  ar  
 24  11  17  ar  
 25  12  18  2   
 26  13  19  1   
 27  13  37  1   
 28  13  38  1   
 29  14  20  1   
 30  14  21  1   
 31  15  22  2   
 32  15  23  1   
 33  16  20  1   
 34  16  24  ar  
 35  17  25  ar  
 36  17  39  1   
 37  19  26  2   
 38  19  27  1   
 39  21  40  1   
 40  21  41  1   
 41  23  28  1   
 42  24  29  ar  
 43  24  42  1   
 44  25  29  ar  
 45  25  43  1   
 46  27  30  1   
 47  28  44  1   
 48  28  45  1   
 49  28  46  1   
 50  29  47  1   
 51  30  48  1   
 52  30  49  1   
 53  30  50  1   
@<TRIPOS>SUBSTRUCTURE
  1 ****   6 GROUP 4 **** **** 0

# MOE 2024.06 (io_trps.svl 2023.06)
