@<TRIPOS>MOLECULE
4-[3-(4-Chloro-phenyl)-[1,2,4]oxadiazol-5-yl]-N-isobutyl-butyramide
42 43 1 0 0 
SMALL
USER_CHARGES


@<TRIPOS>ATOM
  1 CL       0.1080     0.6990    -1.1970 Cl    1 <1>  -0.1770 
  2 C        1.6060     1.4200    -0.6690 C.ar  1 <1>   0.1770 
  3 C        1.8590     2.7480    -0.9500 C.ar  1 <1>  -0.1500 
  4 C        2.5230     0.6550     0.0250 C.ar  1 <1>  -0.1500 
  5 C        3.0490     3.3150    -0.5290 C.ar  1 <1>  -0.1500 
  6 C        3.7100     1.2330     0.4410 C.ar  1 <1>  -0.1500 
  7 C        4.0040     2.5750     0.1770 C.ar  1 <1>   0.0540 
  8 C        5.2560     3.1700     0.6180 C.2   1 <1>   0.4620 
  9 N        6.1950     2.5580     1.2500 N.2   1 <1>  -0.4100 
 10 N        5.5630     4.4520     0.3990 N.2   1 <1>  -0.5650 
 11 O        7.1450     3.4100     1.4710 O.3   1 <1>  -0.0190 
 12 C        6.7100     4.5200     0.9330 C.2   1 <1>   0.2980 
 13 C        7.5910     5.7550     0.9930 C.3   1 <1>   0.0200 
 14 C        8.6010     5.8330    -0.1650 C.3   1 <1>  -0.1600 
 15 C        9.5400     4.6100    -0.2460 C.3   1 <1>  -0.0990 
 16 C       10.6340     4.7290    -1.2980 C.2   1 <1>   0.5690 
 17 O       10.7880     5.7610    -1.9000 O.2   1 <1>  -0.5700 
 18 N       11.4520     3.6840    -1.5570 N.am  1 <1>  -0.7300 
 19 C       11.4870     2.3370    -0.9380 C.3   1 <1>   0.1400 
 20 C       12.7880     2.1380    -0.1430 C.3   1 <1>  -0.0800 
 21 C       12.8650     0.7000     0.3870 C.3   1 <1>  -0.2400 
 22 C       12.9050     3.1230     1.0310 C.3   1 <1>  -0.2400 
 23 H        1.1320     3.3270    -1.4910 H     1 <1>   0.1500 
 24 H        2.3070    -0.3770     0.2340 H     1 <1>   0.1500 
 25 H        3.2420     4.3510    -0.7500 H     1 <1>   0.1500 
 26 H        4.4220     0.6340     0.9820 H     1 <1>   0.1500 
 27 H        8.1110     5.7680     1.9340 H     1 <1>   0.0800 
 28 H        6.9590     6.6240     0.9580 H     1 <1>   0.0800 
 29 H        9.1920     6.7250    -0.0430 H     1 <1>   0.0800 
 30 H        8.0670     5.9240    -1.0960 H     1 <1>   0.0800 
 31 H        8.9590     3.7380    -0.4790 H     1 <1>   0.0800 
 32 H       10.0130     4.4600     0.7070 H     1 <1>   0.0800 
 33 H       12.1730     3.8680    -2.2580 H     1 <1>   0.3700 
 34 H       11.4260     1.6000    -1.7210 H     1 <1>   0.0800 
 35 H       10.6420     2.1960    -0.2870 H     1 <1>   0.0800 
 36 H       13.6200     2.2910    -0.8090 H     1 <1>   0.0800 
 37 H       12.0510     0.4990     1.0620 H     1 <1>   0.0800 
 38 H       13.7910     0.5450     0.9120 H     1 <1>   0.0800 
 39 H       12.8190    -0.0030    -0.4260 H     1 <1>   0.0800 
 40 H       12.0760     3.0070     1.7070 H     1 <1>   0.0800 
 41 H       12.9190     4.1380     0.6740 H     1 <1>   0.0800 
 42 H       13.8170     2.9500     1.5730 H     1 <1>   0.0800 
@<TRIPOS>BOND
  1   1   2  1   
  2   2   3  ar  
  3   2   4  ar  
  4   3   5  ar  
  5   3  23  1   
  6   4   6  ar  
  7   4  24  1   
  8   5   7  ar  
  9   5  25  1   
 10   6   7  ar  
 11   6  26  1   
 12   7   8  1   
 13   8   9  2   
 14   8  10  1   
 15   9  11  1   
 16  10  12  2   
 17  11  12  1   
 18  12  13  1   
 19  13  14  1   
 20  13  27  1   
 21  13  28  1   
 22  14  15  1   
 23  14  29  1   
 24  14  30  1   
 25  15  16  1   
 26  15  31  1   
 27  15  32  1   
 28  16  17  2   
 29  16  18  am  
 30  18  19  1   
 31  18  33  1   
 32  19  20  1   
 33  19  34  1   
 34  19  35  1   
 35  20  21  1   
 36  20  22  1   
 37  20  36  1   
 38  21  37  1   
 39  21  38  1   
 40  21  39  1   
 41  22  40  1   
 42  22  41  1   
 43  22  42  1   
@<TRIPOS>SUBSTRUCTURE
  1 ****  11 GROUP 4 **** **** 0

# MOE 2024.06 (io_trps.svl 2023.06)
