@<TRIPOS>MOLECULE
N-{4-[3-(4-Acetyl-3,5-dimethyl-pyrazol-1-yl)-2-hydroxy-propoxy]-phenyl}-acetamid
48 49 1 0 0 
SMALL
USER_CHARGES


@<TRIPOS>ATOM
  1 O        0.2490     1.2720    -2.2090 O.2   1 <1>  -0.5700 
  2 C        0.8880     1.4210    -1.1990 C.2   1 <1>   0.5690 
  3 N        0.5500     2.2770    -0.1910 N.am  1 <1>  -0.5470 
  4 C        2.1430     0.6050    -1.0170 C.3   1 <1>  -0.1790 
  5 C       -0.5280     3.1710    -0.0660 C.ar  1 <1>   0.1170 
  6 C       -0.9070     3.5870     1.2060 C.ar  1 <1>  -0.1500 
  7 C       -1.2260     3.6740    -1.1590 C.ar  1 <1>  -0.1500 
  8 C       -1.9550     4.4730     1.3870 C.ar  1 <1>  -0.1500 
  9 C       -2.2740     4.5590    -0.9850 C.ar  1 <1>  -0.1500 
 10 C       -2.6490     4.9650     0.2850 C.ar  1 <1>   0.0830 
 11 O       -3.6910     5.8330     0.3690 O.3   1 <1>  -0.3630 
 12 C       -4.1700     6.2730     1.6260 C.3   1 <1>   0.1200 
 13 C       -5.3620     7.2070     1.4110 C.3   1 <1>   0.2000 
 14 O       -5.8540     7.5630     2.6580 O.3   1 <1>  -0.6800 
 15 C       -6.4850     6.5550     0.5920 C.3   1 <1>   0.0960 
 16 N       -7.5880     7.5150     0.3530 N.pl3 1 <1>   0.3140 
 17 N       -8.3200     7.9730     1.3820 N.2   1 <1>  -0.7070 
 18 C       -7.9970     8.0510    -0.8140 C.2   1 <1>  -0.3320 
 19 C       -9.1750     8.7830     0.8550 C.2   1 <1>   0.1080 
 20 C       -9.0320     8.9070    -0.5350 C.2   1 <1>  -0.0860 
 21 C       -7.3730     7.6840    -2.1570 C.3   1 <1>  -0.0600 
 22 C      -10.1970     9.5050     1.7100 C.3   1 <1>  -0.0590 
 23 C       -9.8340     9.7730    -1.3650 C.2   1 <1>   0.5950 
 24 O      -10.9760    10.0710    -1.1190 O.2   1 <1>  -0.5700 
 25 C       -9.2350    10.3930    -2.6080 C.3   1 <1>  -0.1790 
 26 H        1.1600     2.2380     0.6220 H     1 <1>   0.3700 
 27 H        2.9840     1.2550    -0.8690 H     1 <1>   0.0800 
 28 H        2.3160     0.0090    -1.8940 H     1 <1>   0.0800 
 29 H        2.0340    -0.0470    -0.1710 H     1 <1>   0.0800 
 30 H       -0.3820     3.2120     2.0650 H     1 <1>   0.1500 
 31 H       -0.9520     3.3790    -2.1560 H     1 <1>   0.1500 
 32 H       -2.2140     4.7650     2.3870 H     1 <1>   0.1500 
 33 H       -2.8050     4.9390    -1.8380 H     1 <1>   0.1500 
 34 H       -3.3760     6.7970     2.1270 H     1 <1>   0.0800 
 35 H       -4.4720     5.4100     2.1930 H     1 <1>   0.0800 
 36 H       -5.0270     8.1070     0.9240 H     1 <1>   0.0800 
 37 H       -6.7800     7.9050     2.5370 H     1 <1>   0.4000 
 38 H       -6.8760     5.7040     1.1180 H     1 <1>   0.0800 
 39 H       -6.0980     6.2200    -0.3490 H     1 <1>   0.0800 
 40 H       -7.3170     6.6150    -2.2610 H     1 <1>   0.0800 
 41 H       -6.3810     8.0930    -2.2300 H     1 <1>   0.0800 
 42 H       -7.9590     8.0510    -2.9770 H     1 <1>   0.0800 
 43 H      -10.0080     9.3160     2.7510 H     1 <1>   0.0800 
 44 H      -11.1830     9.1540     1.4670 H     1 <1>   0.0800 
 45 H      -10.1450    10.5630     1.5330 H     1 <1>   0.0800 
 46 H       -8.1670    10.4530    -2.5210 H     1 <1>   0.0800 
 47 H       -9.6250    11.3870    -2.7320 H     1 <1>   0.0800 
 48 H       -9.5030     9.8080    -3.4670 H     1 <1>   0.0800 
@<TRIPOS>BOND
  1   1   2  2   
  2   2   3  am  
  3   2   4  1   
  4   3   5  1   
  5   3  26  1   
  6   4  27  1   
  7   4  28  1   
  8   4  29  1   
  9   5   6  ar  
 10   5   7  ar  
 11   6   8  ar  
 12   6  30  1   
 13   7   9  ar  
 14   7  31  1   
 15   8  10  ar  
 16   8  32  1   
 17   9  10  ar  
 18   9  33  1   
 19  10  11  1   
 20  11  12  1   
 21  12  13  1   
 22  12  34  1   
 23  12  35  1   
 24  13  14  1   
 25  13  15  1   
 26  13  36  1   
 27  14  37  1   
 28  15  16  1   
 29  15  38  1   
 30  15  39  1   
 31  16  17  1   
 32  16  18  1   
 33  17  19  2   
 34  18  20  2   
 35  18  21  1   
 36  19  20  1   
 37  19  22  1   
 38  20  23  1   
 39  21  40  1   
 40  21  41  1   
 41  21  42  1   
 42  22  43  1   
 43  22  44  1   
 44  22  45  1   
 45  23  24  2   
 46  23  25  1   
 47  25  46  1   
 48  25  47  1   
 49  25  48  1   
@<TRIPOS>SUBSTRUCTURE
  1 ****  11 GROUP 4 **** **** 0

# MOE 2024.06 (io_trps.svl 2023.06)
