@<TRIPOS>MOLECULE
2,3-Dihydro-benzo[1,4]dioxine-2-carboxylic acid [4-(3-morpholin-4-yl-propylcarba
59 62 1 0 0 
SMALL
USER_CHARGES


@<TRIPOS>ATOM
  1 O        0.0430    -2.1820    -1.7410 O.2   1 <1>  -0.5700 
  2 C       -0.4770    -2.1560    -0.6400 C.2   1 <1>   0.5440 
  3 N        0.2890    -1.7010     0.3990 N.am  1 <1>  -0.7300 
  4 C       -1.8320    -2.6360    -0.4380 C.ar  1 <1>   0.0860 
  5 C        1.4910    -0.8360     0.2730 C.3   1 <1>   0.1400 
  6 C       -2.7320    -2.7140    -1.5020 C.ar  1 <1>  -0.1500 
  7 C       -2.3010    -3.0500     0.8120 C.ar  1 <1>  -0.1500 
  8 C        2.7720    -1.6050     0.6250 C.3   1 <1>  -0.1600 
  9 C       -4.0220    -3.1780    -1.3300 C.ar  1 <1>  -0.1500 
 10 C       -3.5910    -3.5120     0.9850 C.ar  1 <1>  -0.1500 
 11 C        3.4200    -2.3380    -0.5570 C.3   1 <1>   0.3430 
 12 C       -4.4780    -3.5890    -0.0840 C.ar  1 <1>   0.1170 
 13 N        2.5010    -3.3300    -1.1590 N.4   1 <1>  -0.9590 
 14 N       -5.7950    -4.0500     0.0320 N.am  1 <1>  -0.5470 
 15 C        2.2160    -4.5140    -0.2820 C.3   1 <1>   0.3430 
 16 C        2.9280    -3.7650    -2.5280 C.3   1 <1>   0.3430 
 17 C       -6.4500    -4.7440     1.0180 C.2   1 <1>   0.5690 
 18 C        1.2720    -5.5110    -0.9800 C.3   1 <1>   0.1200 
 19 C        1.9430    -4.7940    -3.1150 C.3   1 <1>   0.1200 
 20 O       -5.9210    -5.0960     2.0450 O.2   1 <1>  -0.5700 
 21 C       -7.9210    -5.0930     0.8050 C.3   1 <1>   0.2610 
 22 O        1.7820    -5.8680    -2.2320 O.3   1 <1>  -0.5600 
 23 O       -8.3560    -4.6570    -0.4850 O.3   1 <1>  -0.3630 
 24 C       -8.7940    -4.4570     1.8970 C.3   1 <1>   0.1200 
 25 C       -9.6950    -4.5870    -0.6930 C.ar  1 <1>   0.0830 
 26 O      -10.1640    -4.7180     1.6560 O.3   1 <1>  -0.3620 
 27 C      -10.5960    -4.6290     0.3730 C.ar  1 <1>   0.0830 
 28 C      -10.1650    -4.4760    -1.9910 C.ar  1 <1>  -0.1500 
 29 C      -11.9570    -4.5770     0.1290 C.ar  1 <1>  -0.1500 
 30 C      -11.5290    -4.4180    -2.2290 C.ar  1 <1>  -0.1500 
 31 C      -12.4230    -4.4710    -1.1710 C.ar  1 <1>  -0.1500 
 32 H       -0.1810    -1.6080     1.3050 H     1 <1>   0.3700 
 33 H        1.3770    -0.0090     0.9550 H     1 <1>   0.0800 
 34 H        1.5550    -0.4240    -0.7220 H     1 <1>   0.0800 
 35 H       -2.4110    -2.4040    -2.4830 H     1 <1>   0.1500 
 36 H       -1.6550    -3.0210     1.6700 H     1 <1>   0.1500 
 37 H        2.6000    -2.2720     1.4510 H     1 <1>   0.0800 
 38 H        3.4930    -0.8830     0.9640 H     1 <1>   0.0800 
 39 H       -4.6840    -3.2220    -2.1780 H     1 <1>   0.1500 
 40 H       -3.9080    -3.8130     1.9670 H     1 <1>   0.1500 
 41 H        4.3240    -2.8290    -0.2330 H     1 <1>   0.0800 
 42 H        3.6890    -1.6080    -1.3040 H     1 <1>   0.0800 
 43 H        1.5880    -2.8440    -1.2960 H     1 <1>   0.4500 
 44 H       -6.3890    -3.8780    -0.7830 H     1 <1>   0.3700 
 45 H        1.7630    -4.1860     0.6390 H     1 <1>   0.0800 
 46 H        3.1350    -5.0220    -0.0420 H     1 <1>   0.0800 
 47 H        3.9070    -4.2130    -2.4830 H     1 <1>   0.0800 
 48 H        2.9780    -2.9110    -3.1840 H     1 <1>   0.0800 
 49 H        0.2910    -5.0880    -1.1130 H     1 <1>   0.0800 
 50 H        1.1810    -6.4100    -0.3950 H     1 <1>   0.0800 
 51 H        2.3220    -5.1850    -4.0430 H     1 <1>   0.0800 
 52 H        0.9810    -4.3450    -3.2980 H     1 <1>   0.0800 
 53 H       -8.0280    -6.1610     0.8410 H     1 <1>   0.0800 
 54 H       -8.6540    -3.3910     1.9180 H     1 <1>   0.0800 
 55 H       -8.5450    -4.8610     2.8630 H     1 <1>   0.0800 
 56 H       -9.4680    -4.4390    -2.8080 H     1 <1>   0.1500 
 57 H      -12.6440    -4.6170     0.9560 H     1 <1>   0.1500 
 58 H      -11.8950    -4.3340    -3.2380 H     1 <1>   0.1500 
 59 H      -13.4820    -4.4290    -1.3600 H     1 <1>   0.1500 
@<TRIPOS>BOND
  1   1   2  2   
  2   2   3  am  
  3   2   4  1   
  4   3   5  1   
  5   3  32  1   
  6   4   6  ar  
  7   4   7  ar  
  8   5   8  1   
  9   5  33  1   
 10   5  34  1   
 11   6   9  ar  
 12   6  35  1   
 13   7  10  ar  
 14   7  36  1   
 15   8  11  1   
 16   8  37  1   
 17   8  38  1   
 18   9  12  ar  
 19   9  39  1   
 20  10  12  ar  
 21  10  40  1   
 22  11  13  1   
 23  11  41  1   
 24  11  42  1   
 25  12  14  1   
 26  13  15  1   
 27  13  16  1   
 28  13  43  1   
 29  14  17  am  
 30  14  44  1   
 31  15  18  1   
 32  15  45  1   
 33  15  46  1   
 34  16  19  1   
 35  16  47  1   
 36  16  48  1   
 37  17  20  2   
 38  17  21  1   
 39  18  22  1   
 40  18  49  1   
 41  18  50  1   
 42  19  22  1   
 43  19  51  1   
 44  19  52  1   
 45  21  23  1   
 46  21  24  1   
 47  21  53  1   
 48  23  25  1   
 49  24  26  1   
 50  24  54  1   
 51  24  55  1   
 52  25  27  ar  
 53  25  28  ar  
 54  26  27  1   
 55  27  29  ar  
 56  28  30  ar  
 57  28  56  1   
 58  29  31  ar  
 59  29  57  1   
 60  30  31  ar  
 61  30  58  1   
 62  31  59  1   
@<TRIPOS>SUBSTRUCTURE
  1 ****  12 GROUP 4 **** **** 0

# MOE 2024.06 (io_trps.svl 2023.06)
