@<TRIPOS>MOLECULE
1-(4-Ethoxy-3-methyl-benzenesulfonyl)-piperidine-3-carboxylic acid (pyridin-2-yl
56 58 1 0 0 
SMALL
USER_CHARGES


@<TRIPOS>ATOM
  1 S       -0.0150    -1.7890     1.2680 S.o2  1 <1>   1.4470 
  2 O       -0.8150    -2.9670     1.5260 O.2   1 <1>  -0.6500 
  3 O        0.9900    -1.3950     2.2330 O.2   1 <1>  -0.6500 
  4 N        0.8030    -2.0630    -0.1910 N.am  1 <1>  -0.8490 
  5 C       -1.1040    -0.3910     0.8810 C.ar  1 <1>  -0.0090 
  6 C        1.7470    -0.9800    -0.5490 C.3   1 <1>   0.1960 
  7 C        1.3640    -3.4230    -0.2430 C.3   1 <1>   0.1960 
  8 C       -1.9710    -0.4420    -0.2030 C.ar  1 <1>  -0.1500 
  9 C       -1.0970     0.7650     1.6520 C.ar  1 <1>  -0.1500 
 10 C        3.2020    -1.3510    -0.2330 C.3   1 <1>  -0.0190 
 11 C        2.4480    -3.5420    -1.3200 C.3   1 <1>  -0.1600 
 12 C       -2.8040     0.6180    -0.5220 C.ar  1 <1>  -0.1430 
 13 C       -1.9210     1.8350     1.3500 C.ar  1 <1>  -0.1500 
 14 C        4.1240    -0.1690    -0.4900 C.2   1 <1>   0.5690 
 15 C        3.6310    -2.5940    -1.0440 C.3   1 <1>  -0.1600 
 16 C       -2.7810     1.7700     0.2580 C.ar  1 <1>   0.0820 
 17 C       -3.7350     0.5150    -1.7220 C.3   1 <1>  -0.0960 
 18 O        3.9310     0.5470    -1.4430 O.2   1 <1>  -0.5700 
 19 N        5.1540     0.0430     0.3590 N.am  1 <1>  -0.7300 
 20 O       -3.6120     2.7860    -0.0910 O.3   1 <1>  -0.3630 
 21 C        6.2110     1.0630     0.1880 C.3   1 <1>   0.2840 
 22 C       -3.6520     3.9960     0.6280 C.3   1 <1>   0.1200 
 23 C        7.5730     0.4250     0.4380 C.ar  1 <1>   0.1660 
 24 C       -4.6780     4.9070    -0.0390 C.3   1 <1>  -0.2400 
 25 N        7.7600    -0.1380     1.6270 N.ar  1 <1>  -0.6200 
 26 C        8.5330     0.4490    -0.5650 C.ar  1 <1>  -0.1500 
 27 C        8.9480    -0.6880     1.8220 C.ar  1 <1>   0.1600 
 28 C        9.7650    -0.1290    -0.3460 C.ar  1 <1>  -0.1500 
 29 C        9.9680    -0.7110     0.8860 C.ar  1 <1>  -0.1500 
 30 H        1.4860    -0.0640    -0.0440 H     1 <1>   0.0800 
 31 H        1.6630    -0.7920    -1.6060 H     1 <1>   0.0800 
 32 H        0.5700    -4.1240    -0.4400 H     1 <1>   0.0800 
 33 H        1.7960    -3.6750     0.7130 H     1 <1>   0.0800 
 34 H       -1.9870    -1.3350    -0.8040 H     1 <1>   0.1500 
 35 H       -0.4350     0.8300     2.5000 H     1 <1>   0.1500 
 36 H        3.2550    -1.5790     0.8160 H     1 <1>   0.0800 
 37 H        2.0040    -3.3080    -2.2720 H     1 <1>   0.0800 
 38 H        2.8010    -4.5570    -1.3680 H     1 <1>   0.0800 
 39 H       -1.8780     2.7060     1.9760 H     1 <1>   0.1500 
 40 H        4.3990    -3.1140    -0.4980 H     1 <1>   0.0800 
 41 H        4.0520    -2.2900    -1.9880 H     1 <1>   0.0800 
 42 H       -3.6330    -0.4350    -2.2150 H     1 <1>   0.0800 
 43 H       -3.5070     1.2950    -2.4260 H     1 <1>   0.0800 
 44 H       -4.7550     0.6280    -1.4000 H     1 <1>   0.0800 
 45 H        5.3580    -0.5990     1.1300 H     1 <1>   0.3700 
 46 H        6.0570     1.8520     0.9030 H     1 <1>   0.0800 
 47 H        6.1650     1.4830    -0.8010 H     1 <1>   0.0800 
 48 H       -2.6730     4.4420     0.5990 H     1 <1>   0.0800 
 49 H       -3.9370     3.7800     1.6430 H     1 <1>   0.0800 
 50 H       -4.3930     5.1020    -1.0570 H     1 <1>   0.0800 
 51 H       -4.7330     5.8420     0.4880 H     1 <1>   0.0800 
 52 H       -5.6490     4.4450    -0.0210 H     1 <1>   0.0800 
 53 H        8.3190     0.9140    -1.5100 H     1 <1>   0.1500 
 54 H        9.1190    -1.1470     2.7810 H     1 <1>   0.1500 
 55 H       10.5310    -0.1270    -1.1020 H     1 <1>   0.1500 
 56 H       10.9060    -1.1790     1.1220 H     1 <1>   0.1500 
@<TRIPOS>BOND
  1   1   2  2   
  2   1   3  2   
  3   1   4  am  
  4   1   5  1   
  5   4   6  1   
  6   4   7  1   
  7   5   8  ar  
  8   5   9  ar  
  9   6  10  1   
 10   6  30  1   
 11   6  31  1   
 12   7  11  1   
 13   7  32  1   
 14   7  33  1   
 15   8  12  ar  
 16   8  34  1   
 17   9  13  ar  
 18   9  35  1   
 19  10  14  1   
 20  10  15  1   
 21  10  36  1   
 22  11  15  1   
 23  11  37  1   
 24  11  38  1   
 25  12  16  ar  
 26  12  17  1   
 27  13  16  ar  
 28  13  39  1   
 29  14  18  2   
 30  14  19  am  
 31  15  40  1   
 32  15  41  1   
 33  16  20  1   
 34  17  42  1   
 35  17  43  1   
 36  17  44  1   
 37  19  21  1   
 38  19  45  1   
 39  20  22  1   
 40  21  23  1   
 41  21  46  1   
 42  21  47  1   
 43  22  24  1   
 44  22  48  1   
 45  22  49  1   
 46  23  25  ar  
 47  23  26  ar  
 48  24  50  1   
 49  24  51  1   
 50  24  52  1   
 51  25  27  ar  
 52  26  28  ar  
 53  26  53  1   
 54  27  29  ar  
 55  27  54  1   
 56  28  29  ar  
 57  28  55  1   
 58  29  56  1   
@<TRIPOS>SUBSTRUCTURE
  1 ****   6 GROUP 4 **** **** 0

# MOE 2024.06 (io_trps.svl 2023.06)
