@<TRIPOS>MOLECULE
7-(2-Hydroxy-3-m-tolyloxy-propyl)-3-methyl-8-piperidin-1-yl-3,7-dihydro-purine-2
58 61 1 0 0 
SMALL
USER_CHARGES


@<TRIPOS>ATOM
  1 O        1.3740     1.3520     1.2410 O.2   1 <1>  -0.5740 
  2 C        2.4160     1.5960     0.6800 C.2   1 <1>   0.6870 
  3 N        3.5600     0.8380     0.8780 N.am  1 <1>  -0.4410 
  4 N        2.4610     2.6570    -0.1770 N.am  1 <1>  -0.4940 
  5 C        4.7070     1.2140     0.1930 C.2   1 <1>   0.4210 
  6 C        3.5630    -0.3220     1.8170 C.3   1 <1>   0.0530 
  7 C        3.5780     3.0320    -0.8660 C.2   1 <1>   0.7000 
  8 N        5.9360     0.6430     0.2650 N.pl3 1 <1>  -0.7030 
  9 C        4.7680     2.2550    -0.6680 C.2   1 <1>   0.2710 
 10 O        3.5080     3.9920    -1.6100 O.2   1 <1>  -0.5740 
 11 C        6.7630     1.3190    -0.5330 C.cat 1 <1>   1.0690 
 12 N        6.0940     2.3080    -1.1460 N.pl3 1 <1>  -0.7670 
 13 N        8.0700     1.0090    -0.6630 N.pl3 1 <1>  -0.5960 
 14 C        6.6750     3.5900    -1.6620 C.3   1 <1>   0.3490 
 15 C        8.8210     1.1290    -1.9450 C.3   1 <1>   0.1610 
 16 C        8.8600     0.3720     0.4310 C.3   1 <1>   0.1610 
 17 C        7.5320     4.3180    -0.5990 C.3   1 <1>   0.1940 
 18 C        9.2970    -0.2560    -2.3990 C.3   1 <1>  -0.1660 
 19 C        9.3060    -1.0290     0.0040 C.3   1 <1>  -0.1660 
 20 O        6.9930     4.1460     0.6770 O.3   1 <1>  -0.6830 
 21 C        7.6610     5.8190    -0.8780 C.3   1 <1>   0.1140 
 22 C       10.0990    -0.9770    -1.3080 C.3   1 <1>  -0.1660 
 23 O        8.3770     6.4080     0.1870 O.3   1 <1>  -0.3680 
 24 C        8.6990     7.7260     0.1700 C.ar  1 <1>   0.0760 
 25 C        9.5220     8.1810     1.1890 C.ar  1 <1>  -0.1560 
 26 C        8.2540     8.6180    -0.8010 C.ar  1 <1>  -0.1560 
 27 C        9.9060     9.5100     1.2490 C.ar  1 <1>  -0.1500 
 28 C        8.6380     9.9460    -0.7440 C.ar  1 <1>  -0.1560 
 29 C        9.4610    10.3900     0.2770 C.ar  1 <1>  -0.1560 
 30 C       10.8090    10.0040     2.3650 C.3   1 <1>  -0.1030 
 31 H        1.6060     3.1960    -0.2990 H     1 <1>   0.3650 
 32 H        2.5610    -0.5600     2.1330 H     1 <1>   0.0730 
 33 H        4.1470    -0.0830     2.6880 H     1 <1>   0.0730 
 34 H        3.9760    -1.1880     1.3310 H     1 <1>   0.0730 
 35 H        6.2100    -0.1640     0.8140 H     1 <1>   0.4450 
 36 H        5.8810     4.2480    -1.9670 H     1 <1>   0.0730 
 37 H        7.2670     3.4100    -2.5410 H     1 <1>   0.0730 
 38 H        9.6690     1.7780    -1.8030 H     1 <1>   0.0730 
 39 H        8.1970     1.5380    -2.7190 H     1 <1>   0.0730 
 40 H        8.2890     0.3170     1.3420 H     1 <1>   0.0730 
 41 H        9.7290     0.9770     0.6300 H     1 <1>   0.0730 
 42 H        8.5200     3.8900    -0.5890 H     1 <1>   0.0730 
 43 H        9.9090    -0.1500    -3.2780 H     1 <1>   0.0730 
 44 H        8.4440    -0.8520    -2.6730 H     1 <1>   0.0730 
 45 H        8.4470    -1.6650    -0.1140 H     1 <1>   0.0730 
 46 H        9.9240    -1.4560     0.7740 H     1 <1>   0.0730 
 47 H        7.3770     4.8430     1.2610 H     1 <1>   0.3950 
 48 H        6.6900     6.2830    -0.9330 H     1 <1>   0.0730 
 49 H        8.2050     5.9940    -1.7900 H     1 <1>   0.0730 
 50 H       11.0290    -0.4580    -1.1450 H     1 <1>   0.0730 
 51 H       10.3350    -1.9780    -1.6310 H     1 <1>   0.0730 
 52 H        9.8600     7.4850     1.9340 H     1 <1>   0.1440 
 53 H        7.6120     8.3090    -1.6030 H     1 <1>   0.1440 
 54 H        8.2950    10.6390    -1.4930 H     1 <1>   0.1440 
 55 H        9.7550    11.4250     0.3120 H     1 <1>   0.1440 
 56 H       10.7960     9.3210     3.1950 H     1 <1>   0.0730 
 57 H       10.4770    10.9660     2.7120 H     1 <1>   0.0730 
 58 H       11.8180    10.0910     2.0040 H     1 <1>   0.0730 
@<TRIPOS>BOND
  1   1   2  2   
  2   2   3  am  
  3   2   4  am  
  4   3   5  1   
  5   3   6  1   
  6   4   7  am  
  7   4  31  1   
  8   5   8  1   
  9   5   9  2   
 10   6  32  1   
 11   6  33  1   
 12   6  34  1   
 13   7   9  1   
 14   7  10  2   
 15   8  11  ar  
 16   8  35  1   
 17   9  12  1   
 18  11  12  ar  
 19  11  13  ar  
 20  12  14  1   
 21  13  15  1   
 22  13  16  1   
 23  14  17  1   
 24  14  36  1   
 25  14  37  1   
 26  15  18  1   
 27  15  38  1   
 28  15  39  1   
 29  16  19  1   
 30  16  40  1   
 31  16  41  1   
 32  17  20  1   
 33  17  21  1   
 34  17  42  1   
 35  18  22  1   
 36  18  43  1   
 37  18  44  1   
 38  19  22  1   
 39  19  45  1   
 40  19  46  1   
 41  20  47  1   
 42  21  23  1   
 43  21  48  1   
 44  21  49  1   
 45  22  50  1   
 46  22  51  1   
 47  23  24  1   
 48  24  25  ar  
 49  24  26  ar  
 50  25  27  ar  
 51  25  52  1   
 52  26  28  ar  
 53  26  53  1   
 54  27  29  ar  
 55  27  30  1   
 56  28  29  ar  
 57  28  54  1   
 58  29  55  1   
 59  30  56  1   
 60  30  57  1   
 61  30  58  1   
@<TRIPOS>SUBSTRUCTURE
  1 ****  20 GROUP 4 **** **** 0

# MOE 2024.06 (io_trps.svl 2023.06)
