@<TRIPOS>MOLECULE
N-(6-Methyl-1-propyl-1H-pyrazolo[3,4-b]quinolin-3-yl)-succinamic acid
44 46 1 0 0 
SMALL
USER_CHARGES


@<TRIPOS>ATOM
  1 O        0.0990    -0.4180     0.4670 O.co2 1 <1>  -0.9000 
  2 C        0.1010    -1.6480     0.5280 C.2   1 <1>   0.9060 
  3 O        1.1280    -2.3270     0.6000 O.co2 1 <1>  -0.9000 
  4 C       -1.2130    -2.3800     0.4960 C.3   1 <1>  -0.2660 
  5 C       -1.4320    -3.0510    -0.8740 C.3   1 <1>  -0.0990 
  6 C       -2.5500    -4.0730    -0.8510 C.2   1 <1>   0.5690 
  7 O       -3.5390    -3.8800    -1.5160 O.2   1 <1>  -0.5700 
  8 N       -2.3530    -5.1800    -0.0900 N.am  1 <1>  -0.4930 
  9 C       -3.1460    -6.2960     0.1470 C.2   1 <1>   0.3520 
 10 N       -2.5650    -7.4020     0.4520 N.2   1 <1>  -0.7070 
 11 C       -4.5650    -6.3890     0.1360 C.ar  1 <1>   0.0000 
 12 N       -3.5800    -8.2950     0.6290 N.pl3 1 <1>   0.3140 
 13 C       -4.8090    -7.7240     0.4520 C.ar  1 <1>   0.1050 
 14 C       -5.6470    -5.5620    -0.0640 C.ar  1 <1>  -0.1500 
 15 C       -3.3250    -9.7060     0.9770 C.3   1 <1>   0.0960 
 16 N       -5.9920    -8.3070     0.5680 N.ar  1 <1>  -0.5670 
 17 C       -6.9220    -6.1140     0.0380 C.ar  1 <1>   0.0000 
 18 C       -3.2040   -10.5680    -0.2880 C.3   1 <1>  -0.1600 
 19 C       -7.0420    -7.4970     0.3550 C.ar  1 <1>   0.3100 
 20 C       -8.0990    -5.3530    -0.1610 C.ar  1 <1>  -0.1500 
 21 C       -2.9360   -12.0360     0.0600 C.3   1 <1>  -0.2400 
 22 C       -8.3420    -8.0360     0.4540 C.ar  1 <1>  -0.1500 
 23 C       -9.3410    -5.9120    -0.0560 C.ar  1 <1>  -0.1440 
 24 C       -9.4590    -7.2760     0.2580 C.ar  1 <1>  -0.1500 
 25 C      -10.6050    -5.1000    -0.2690 C.3   1 <1>  -0.0970 
 26 H       -2.0040    -1.6830     0.7010 H     1 <1>   0.0800 
 27 H       -1.1840    -3.1080     1.2830 H     1 <1>   0.0800 
 28 H       -0.5270    -3.5480    -1.1770 H     1 <1>   0.0800 
 29 H       -1.6470    -2.2950    -1.6080 H     1 <1>   0.0800 
 30 H       -1.4220    -5.2780     0.3090 H     1 <1>   0.3700 
 31 H       -5.5210    -4.5200    -0.2900 H     1 <1>   0.1500 
 32 H       -4.1350   -10.0570     1.5900 H     1 <1>   0.0800 
 33 H       -2.4150    -9.7530     1.5470 H     1 <1>   0.0800 
 34 H       -2.3970   -10.1940    -0.8960 H     1 <1>   0.0800 
 35 H       -4.1180   -10.4990    -0.8530 H     1 <1>   0.0800 
 36 H       -7.9830    -4.3120    -0.4030 H     1 <1>   0.1500 
 37 H       -2.0160   -12.1330     0.6100 H     1 <1>   0.0800 
 38 H       -2.8560   -12.6180    -0.8420 H     1 <1>   0.0800 
 39 H       -3.7410   -12.4360     0.6520 H     1 <1>   0.0800 
 40 H       -8.4190    -9.0800     0.6940 H     1 <1>   0.1500 
 41 H      -10.4400    -7.7110     0.3390 H     1 <1>   0.1500 
 42 H      -10.3680    -4.0770    -0.5040 H     1 <1>   0.0800 
 43 H      -11.2060    -5.1160     0.6220 H     1 <1>   0.0800 
 44 H      -11.1740    -5.5140    -1.0820 H     1 <1>   0.0800 
@<TRIPOS>BOND
  1   1   2  ar  
  2   2   3  ar  
  3   2   4  1   
  4   4   5  1   
  5   4  26  1   
  6   4  27  1   
  7   5   6  1   
  8   5  28  1   
  9   5  29  1   
 10   6   7  2   
 11   6   8  am  
 12   8   9  1   
 13   8  30  1   
 14   9  10  2   
 15   9  11  1   
 16  10  12  1   
 17  11  13  ar  
 18  11  14  ar  
 19  12  13  1   
 20  12  15  1   
 21  13  16  ar  
 22  14  17  ar  
 23  14  31  1   
 24  15  18  1   
 25  15  32  1   
 26  15  33  1   
 27  16  19  ar  
 28  17  19  ar  
 29  17  20  ar  
 30  18  21  1   
 31  18  34  1   
 32  18  35  1   
 33  19  22  ar  
 34  20  23  ar  
 35  20  36  1   
 36  21  37  1   
 37  21  38  1   
 38  21  39  1   
 39  22  24  ar  
 40  22  40  1   
 41  23  24  ar  
 42  23  25  1   
 43  24  41  1   
 44  25  42  1   
 45  25  43  1   
 46  25  44  1   
@<TRIPOS>SUBSTRUCTURE
  1 ****  11 GROUP 4 **** **** 0

# MOE 2024.06 (io_trps.svl 2023.06)
