@<TRIPOS>MOLECULE
5-Oxo-1-p-tolyl-pyrrolidine-3-carboxylic acid (5-methyl-isoxazol-3-yl)-amide
39 41 1 0 0 
SMALL
USER_CHARGES


@<TRIPOS>ATOM
  1 O        0.9830     0.3940    -0.1510 O.2   1 <1>  -0.5700 
  2 C        2.1830     0.3160    -0.2220 C.2   1 <1>   0.5690 
  3 N        2.9530    -0.8050    -0.0990 N.am  1 <1>  -0.4770 
  4 C        3.0270     1.5330    -0.4840 C.3   1 <1>  -0.0990 
  5 C        2.5420    -2.1370     0.1070 C.ar  1 <1>   0.1170 
  6 C        4.3830    -0.4660    -0.2540 C.3   1 <1>   0.1400 
  7 C        4.3830     0.9340    -0.8850 C.3   1 <1>  -0.0190 
  8 C        1.3560    -2.6180    -0.4390 C.ar  1 <1>  -0.1500 
  9 C        3.3190    -3.0190     0.8540 C.ar  1 <1>  -0.1500 
 10 C        5.5840     1.7860    -0.4960 C.2   1 <1>   0.5690 
 11 C        0.9630    -3.9310    -0.2520 C.ar  1 <1>  -0.1500 
 12 C        2.9300    -4.3330     1.0420 C.ar  1 <1>  -0.1500 
 13 O        6.5070     1.2700     0.0850 O.2   1 <1>  -0.5700 
 14 N        5.5690     3.1030    -0.8380 N.am  1 <1>  -0.4930 
 15 C        1.7480    -4.7980     0.4900 C.ar  1 <1>  -0.1430 
 16 C        6.5160     4.0980    -0.6070 C.2   1 <1>   0.3520 
 17 C        1.3170    -6.2390     0.6940 C.3   1 <1>  -0.0970 
 18 N        6.3140     5.3050    -1.0020 N.2   1 <1>  -0.4100 
 19 C        7.7500     3.9890     0.0370 C.2   1 <1>  -0.1500 
 20 O        7.3730     5.9860    -0.6380 O.3   1 <1>  -0.0190 
 21 C        8.2440     5.2330    -0.0190 C.2   1 <1>  -0.0400 
 22 C        9.5400     5.8320     0.4840 C.3   1 <1>  -0.0600 
 23 H        3.0950     2.0990     0.4280 H     1 <1>   0.0800 
 24 H        2.5970     2.1330    -1.2640 H     1 <1>   0.0800 
 25 H        4.8840    -1.1820    -0.8830 H     1 <1>   0.0800 
 26 H        4.8420    -0.4540     0.7210 H     1 <1>   0.0800 
 27 H        4.4020     0.8030    -1.9530 H     1 <1>   0.0800 
 28 H        0.7320    -1.9610    -1.0170 H     1 <1>   0.1500 
 29 H        4.2350    -2.6810     1.3010 H     1 <1>   0.1500 
 30 H        0.0410    -4.2730    -0.6870 H     1 <1>   0.1500 
 31 H        3.5500    -4.9930     1.6220 H     1 <1>   0.1500 
 32 H        4.7580     3.4600    -1.3370 H     1 <1>   0.3700 
 33 H        0.2440    -6.3090     0.7190 H     1 <1>   0.0800 
 34 H        1.7020    -6.6200     1.6220 H     1 <1>   0.0800 
 35 H        1.6860    -6.8460    -0.1130 H     1 <1>   0.0800 
 36 H        8.1700     3.0990     0.4650 H     1 <1>   0.1500 
 37 H       10.1350     5.0780     0.9650 H     1 <1>   0.0800 
 38 H        9.3300     6.6160     1.1890 H     1 <1>   0.0800 
 39 H       10.0950     6.2430    -0.3400 H     1 <1>   0.0800 
@<TRIPOS>BOND
  1   1   2  2   
  2   2   3  am  
  3   2   4  1   
  4   3   5  1   
  5   3   6  1   
  6   4   7  1   
  7   4  23  1   
  8   4  24  1   
  9   5   8  ar  
 10   5   9  ar  
 11   6   7  1   
 12   6  25  1   
 13   6  26  1   
 14   7  10  1   
 15   7  27  1   
 16   8  11  ar  
 17   8  28  1   
 18   9  12  ar  
 19   9  29  1   
 20  10  13  2   
 21  10  14  am  
 22  11  15  ar  
 23  11  30  1   
 24  12  15  ar  
 25  12  31  1   
 26  14  16  1   
 27  14  32  1   
 28  15  17  1   
 29  16  18  2   
 30  16  19  1   
 31  17  33  1   
 32  17  34  1   
 33  17  35  1   
 34  18  20  1   
 35  19  21  2   
 36  19  36  1   
 37  20  21  1   
 38  21  22  1   
 39  22  37  1   
 40  22  38  1   
 41  22  39  1   
@<TRIPOS>SUBSTRUCTURE
  1 ****   7 GROUP 4 **** **** 0

# MOE 2024.06 (io_trps.svl 2023.06)
