@<TRIPOS>MOLECULE
3-(2-Ethoxy-ethyl)-8-(4-ethoxy-phenyl)-1,6,7-trimethyl-1H,8H-imidazo[2,1-f]purin
59 62 1 0 0 
SMALL
USER_CHARGES


@<TRIPOS>ATOM
  1 O        0.9230    -0.4690    -0.8780 O.2   1 <1>  -0.5740 
  2 C        1.8350     0.3260    -0.7970 C.2   1 <1>   0.6870 
  3 N        1.5710     1.6910    -0.7700 N.am  1 <1>  -0.4250 
  4 N        3.1460    -0.1330    -0.7220 N.am  1 <1>  -0.4410 
  5 C        2.5920     2.6210    -0.6250 C.2   1 <1>   0.7000 
  6 C        0.1560     2.1630    -0.9090 C.3   1 <1>   0.1340 
  7 C        4.1590     0.8000    -0.6270 C.2   1 <1>   0.4210 
  8 C        3.4440    -1.5970    -0.7630 C.3   1 <1>   0.0530 
  9 O        2.3440     3.8110    -0.5360 O.2   1 <1>  -0.5740 
 10 C        3.9340     2.1360    -0.5730 C.2   1 <1>   0.2720 
 11 C       -0.5430     2.1860     0.4500 C.3   1 <1>   0.1140 
 12 N        5.5030     0.5640    -0.5690 N.pl3 1 <1>  -0.7030 
 13 N        5.1970     2.7420    -0.4730 N.pl3 1 <1>  -0.6320 
 14 O       -1.8230     2.6910     0.2630 O.3   1 <1>  -0.5640 
 15 C        6.0890     1.7620    -0.4760 C.cat 1 <1>   1.0690 
 16 C        5.9070     3.9230    -0.3780 C.2   1 <1>   0.2350 
 17 C       -2.5850     2.7380     1.4210 C.3   1 <1>   0.1140 
 18 N        7.3420     2.2170    -0.3880 N.pl3 1 <1>  -0.5540 
 19 C        7.2220     3.6000    -0.3260 C.2   1 <1>   0.1590 
 20 C        5.1900     5.2580    -0.3490 C.3   1 <1>  -0.1080 
 21 C       -3.9470     3.3110     1.0520 C.3   1 <1>  -0.2460 
 22 C        8.5120     1.4410    -0.3680 C.ar  1 <1>   0.3060 
 23 C        8.4530     4.4840    -0.2200 C.3   1 <1>  -0.1080 
 24 C        9.1000     1.0340    -1.5560 C.ar  1 <1>  -0.1560 
 25 C        9.0810     1.0620     0.8390 C.ar  1 <1>  -0.1560 
 26 C       10.2370     0.2470    -1.5350 C.ar  1 <1>  -0.1560 
 27 C       10.2200     0.2760     0.8640 C.ar  1 <1>  -0.1560 
 28 C       10.8040    -0.1390    -0.3300 C.ar  1 <1>   0.0760 
 29 O       11.9140    -0.9140    -0.4090 O.3   1 <1>  -0.3670 
 30 C       12.6840    -1.2830     0.7170 C.3   1 <1>   0.1140 
 31 C       13.5700    -0.1090     1.1390 C.3   1 <1>  -0.2460 
 32 H       -0.3840     1.5090    -1.5720 H     1 <1>   0.0740 
 33 H        0.1350     3.1530    -1.3330 H     1 <1>   0.0740 
 34 H        2.5830    -2.1700    -0.4590 H     1 <1>   0.0740 
 35 H        4.2520    -1.8360    -0.0950 H     1 <1>   0.0740 
 36 H        3.7080    -1.8860    -1.7660 H     1 <1>   0.0740 
 37 H       -0.0210     2.8320     1.1350 H     1 <1>   0.0740 
 38 H       -0.6230     1.1890     0.8490 H     1 <1>   0.0740 
 39 H        5.9980    -0.3250    -0.5940 H     1 <1>   0.4460 
 40 H       -2.0900     3.3700     2.1390 H     1 <1>   0.0740 
 41 H       -2.6870     1.7400     1.8130 H     1 <1>   0.0740 
 42 H        4.5230     5.3000     0.4940 H     1 <1>   0.0740 
 43 H        4.6120     5.3860    -1.2470 H     1 <1>   0.0740 
 44 H        5.8880     6.0710    -0.2730 H     1 <1>   0.0740 
 45 H       -3.8330     4.3010     0.6480 H     1 <1>   0.0740 
 46 H       -4.5690     3.3650     1.9260 H     1 <1>   0.0740 
 47 H       -4.4270     2.6800     0.3250 H     1 <1>   0.0740 
 48 H        9.0950     4.3250    -1.0680 H     1 <1>   0.0740 
 49 H        9.0010     4.2500     0.6750 H     1 <1>   0.0740 
 50 H        8.1810     5.5230    -0.1910 H     1 <1>   0.0740 
 51 H        8.6790     1.3310    -2.5000 H     1 <1>   0.1440 
 52 H        8.6390     1.3820     1.7660 H     1 <1>   0.1440 
 53 H       10.7020    -0.0740    -2.4520 H     1 <1>   0.1440 
 54 H       10.6410    -0.0030     1.8120 H     1 <1>   0.1440 
 55 H       13.3010    -2.1130     0.4180 H     1 <1>   0.0740 
 56 H       12.0330    -1.6120     1.5060 H     1 <1>   0.0740 
 57 H       14.2100     0.1780     0.3240 H     1 <1>   0.0740 
 58 H       14.1870    -0.4040     1.9690 H     1 <1>   0.0740 
 59 H       12.9750     0.7330     1.4400 H     1 <1>   0.0740 
@<TRIPOS>BOND
  1   1   2  2   
  2   2   3  am  
  3   2   4  am  
  4   3   5  am  
  5   3   6  1   
  6   4   7  1   
  7   4   8  1   
  8   5   9  2   
  9   5  10  1   
 10   6  11  1   
 11   6  32  1   
 12   6  33  1   
 13   7  10  2   
 14   7  12  1   
 15   8  34  1   
 16   8  35  1   
 17   8  36  1   
 18  10  13  1   
 19  11  14  1   
 20  11  37  1   
 21  11  38  1   
 22  12  15  ar  
 23  12  39  1   
 24  13  15  ar  
 25  13  16  1   
 26  14  17  1   
 27  15  18  ar  
 28  16  19  2   
 29  16  20  1   
 30  17  21  1   
 31  17  40  1   
 32  17  41  1   
 33  18  19  1   
 34  18  22  1   
 35  19  23  1   
 36  20  42  1   
 37  20  43  1   
 38  20  44  1   
 39  21  45  1   
 40  21  46  1   
 41  21  47  1   
 42  22  24  ar  
 43  22  25  ar  
 44  23  48  1   
 45  23  49  1   
 46  23  50  1   
 47  24  26  ar  
 48  24  51  1   
 49  25  27  ar  
 50  25  52  1   
 51  26  28  ar  
 52  26  53  1   
 53  27  28  ar  
 54  27  54  1   
 55  28  29  1   
 56  29  30  1   
 57  30  31  1   
 58  30  55  1   
 59  30  56  1   
 60  31  57  1   
 61  31  58  1   
 62  31  59  1   
@<TRIPOS>SUBSTRUCTURE
  1 ****  15 GROUP 4 **** **** 0

# MOE 2024.06 (io_trps.svl 2023.06)
