@<TRIPOS>MOLECULE
5-(2-Methoxy-phenyl)-8,8-dimethyl-5,8,9,10-tetrahydro-1H,7H-pyrimido[4,5-b]quino
48 51 1 0 0 
SMALL
USER_CHARGES


@<TRIPOS>ATOM
  1 O       -0.7770    -0.8890    -1.8070 O.2   1 <1>  -0.5700 
  2 C       -1.8640    -1.4130    -1.7210 C.2   1 <1>   0.6900 
  3 N       -2.8260    -0.8870    -0.9130 N.am  1 <1>  -0.5390 
  4 N       -2.1580    -2.5310    -2.4290 N.am  1 <1>  -0.4900 
  5 C       -4.0590    -1.4760    -0.7780 C.2   1 <1>   0.2090 
  6 C       -3.3750    -3.1440    -2.3620 C.2   1 <1>   0.6160 
  7 N       -4.9780    -0.8780     0.0460 N.pl3 1 <1>  -0.6000 
  8 C       -4.3370    -2.6160    -1.4690 C.2   1 <1>  -0.1240 
  9 O       -3.5670    -4.0880    -3.1100 O.2   1 <1>  -0.5700 
 10 C       -6.2570    -1.3720     0.1780 C.2   1 <1>  -0.0380 
 11 C       -5.6720    -3.3330    -1.2850 C.3   1 <1>   0.3400 
 12 C       -6.6590    -2.5140    -0.4420 C.2   1 <1>  -0.1240 
 13 C       -7.1990    -0.5670     1.0640 C.3   1 <1>  -0.0220 
 14 C       -5.4530    -4.7280    -0.6760 C.ar  1 <1>  -0.1430 
 15 C       -7.9880    -3.0190    -0.3540 C.2   1 <1>   0.4950 
 16 C       -8.6900    -0.8470     0.7630 C.3   1 <1>   0.0000 
 17 C       -4.8630    -4.9190     0.5740 C.ar  1 <1>   0.0830 
 18 C       -5.8590    -5.8390    -1.4040 C.ar  1 <1>  -0.1500 
 19 O       -8.4320    -3.9090    -1.0400 O.2   1 <1>  -0.5700 
 20 C       -8.9250    -2.3680     0.6480 C.3   1 <1>  -0.0990 
 21 C       -9.5610    -0.2810     1.8960 C.3   1 <1>  -0.2400 
 22 C       -9.1000    -0.1530    -0.5500 C.3   1 <1>  -0.2400 
 23 O       -4.4720    -3.8240     1.2760 O.3   1 <1>  -0.3620 
 24 C       -4.6900    -6.2110     1.0680 C.ar  1 <1>  -0.1500 
 25 C       -5.6830    -7.1180    -0.9090 C.ar  1 <1>  -0.1500 
 26 C       -3.7680    -3.9210     2.4920 C.3   1 <1>   0.0400 
 27 C       -5.0980    -7.3050     0.3280 C.ar  1 <1>  -0.1500 
 28 H       -2.5630    -0.0470    -0.4060 H     1 <1>   0.3700 
 29 H       -1.4580    -2.9160    -3.0510 H     1 <1>   0.3700 
 30 H       -4.7050    -0.0400     0.5640 H     1 <1>   0.4000 
 31 H       -6.1060    -3.4420    -2.2640 H     1 <1>   0.0800 
 32 H       -7.0060     0.4840     0.9410 H     1 <1>   0.0800 
 33 H       -6.9810    -0.8210     2.0860 H     1 <1>   0.0800 
 34 H       -6.3200    -5.7160    -2.3690 H     1 <1>   0.1500 
 35 H       -8.7610    -2.8410     1.5990 H     1 <1>   0.0800 
 36 H       -9.9410    -2.5640     0.3560 H     1 <1>   0.0800 
 37 H       -9.3160    -0.7460     2.8350 H     1 <1>   0.0800 
 38 H      -10.6030    -0.4580     1.6960 H     1 <1>   0.0800 
 39 H       -9.4130     0.7800     1.9960 H     1 <1>   0.0800 
 40 H       -8.5000    -0.4910    -1.3770 H     1 <1>   0.0800 
 41 H       -8.9810     0.9130    -0.4680 H     1 <1>   0.0800 
 42 H      -10.1310    -0.3580    -0.7800 H     1 <1>   0.0800 
 43 H       -4.2410    -6.3880     2.0260 H     1 <1>   0.1500 
 44 H       -6.0050    -7.9650    -1.4890 H     1 <1>   0.1500 
 45 H       -3.5320    -2.9250     2.8200 H     1 <1>   0.0800 
 46 H       -2.8610    -4.4760     2.3260 H     1 <1>   0.0800 
 47 H       -4.3930    -4.4080     3.2190 H     1 <1>   0.0800 
 48 H       -4.9620    -8.3000     0.7130 H     1 <1>   0.1500 
@<TRIPOS>BOND
  1   1   2  2   
  2   2   3  am  
  3   2   4  am  
  4   3   5  1   
  5   3  28  1   
  6   4   6  am  
  7   4  29  1   
  8   5   7  1   
  9   5   8  2   
 10   6   8  1   
 11   6   9  2   
 12   7  10  1   
 13   7  30  1   
 14   8  11  1   
 15  10  12  2   
 16  10  13  1   
 17  11  12  1   
 18  11  14  1   
 19  11  31  1   
 20  12  15  1   
 21  13  16  1   
 22  13  32  1   
 23  13  33  1   
 24  14  17  ar  
 25  14  18  ar  
 26  15  19  2   
 27  15  20  1   
 28  16  20  1   
 29  16  21  1   
 30  16  22  1   
 31  17  23  1   
 32  17  24  ar  
 33  18  25  ar  
 34  18  34  1   
 35  20  35  1   
 36  20  36  1   
 37  21  37  1   
 38  21  38  1   
 39  21  39  1   
 40  22  40  1   
 41  22  41  1   
 42  22  42  1   
 43  23  26  1   
 44  24  27  ar  
 45  24  43  1   
 46  25  27  ar  
 47  25  44  1   
 48  26  45  1   
 49  26  46  1   
 50  26  47  1   
 51  27  48  1   
@<TRIPOS>SUBSTRUCTURE
  1 ****  11 GROUP 4 **** **** 0

# MOE 2024.06 (io_trps.svl 2023.06)
