@<TRIPOS>MOLECULE
8-(2-Dimethylamino-ethylamino)-3-methyl-7-(4-methyl-benzyl)-3,7-dihydro-purine-2
52 54 1 0 0 
SMALL
USER_CHARGES


@<TRIPOS>ATOM
  1 O        0.4020     0.4260     0.1830 O.2   1 <1>  -0.5750 
  2 C        1.4810     0.9610     0.0850 C.2   1 <1>   0.6860 
  3 N        2.6700     0.2440     0.1160 N.am  1 <1>  -0.4420 
  4 N        1.5220     2.3180    -0.0580 N.am  1 <1>  -0.4950 
  5 C        3.8550     0.9570     0.0090 C.2   1 <1>   0.4210 
  6 C        2.6670    -1.2410     0.2690 C.3   1 <1>   0.0520 
  7 C        2.6780     3.0330    -0.1710 C.2   1 <1>   0.6990 
  8 N        5.1290     0.4760     0.0230 N.pl3 1 <1>  -0.7040 
  9 C        3.9080     2.3010    -0.1320 C.2   1 <1>   0.2710 
 10 O        2.6280     4.2400    -0.2960 O.2   1 <1>  -0.5750 
 11 C        5.9610     1.5070    -0.1130 C.cat 1 <1>   1.0690 
 12 N        5.2690     2.6480    -0.2090 N.pl3 1 <1>  -0.7670 
 13 N        7.2910     1.3970    -0.1500 N.pl3 1 <1>  -0.7180 
 14 C        5.6870     4.0810    -0.3590 C.3   1 <1>   0.4920 
 15 C        8.2100     0.2350     0.0000 C.3   1 <1>   0.1600 
 16 C        7.2010     4.1810    -0.3070 C.ar  1 <1>  -0.1510 
 17 C        9.6050     0.7110     0.4720 C.3   1 <1>   0.3370 
 18 C        7.8530     4.2710     0.9150 C.ar  1 <1>  -0.1570 
 19 C        7.9480     4.0990    -1.4730 C.ar  1 <1>  -0.1570 
 20 N       10.6020    -0.3990     0.6300 N.4   1 <1>  -0.9610 
 21 C        9.2350     4.2440     0.9700 C.ar  1 <1>  -0.1570 
 22 C        9.3300     4.0700    -1.4120 C.ar  1 <1>  -0.1570 
 23 C       11.8390     0.1280     1.2880 C.3   1 <1>   0.2560 
 24 C       10.9780    -1.0390    -0.6720 C.3   1 <1>   0.2560 
 25 C        9.9790     4.1330    -0.1910 C.ar  1 <1>  -0.1510 
 26 C       11.4970     4.1290    -0.1360 C.3   1 <1>  -0.1040 
 27 H        0.6310     2.8130    -0.0790 H     1 <1>   0.3640 
 28 H        1.6640    -1.6310     0.2070 H     1 <1>   0.0720 
 29 H        3.0750    -1.5110     1.2270 H     1 <1>   0.0720 
 30 H        3.2500    -1.6940    -0.5130 H     1 <1>   0.0720 
 31 H        5.3930    -0.5000     0.1020 H     1 <1>   0.4450 
 32 H        7.7680     2.3020    -0.3020 H     1 <1>   0.4450 
 33 H        5.2570     4.6700     0.4350 H     1 <1>   0.0720 
 34 H        5.3230     4.4700    -1.2950 H     1 <1>   0.0720 
 35 H        8.2990    -0.2550    -0.9550 H     1 <1>   0.0720 
 36 H        7.8020    -0.4560     0.7180 H     1 <1>   0.0720 
 37 H        9.4920     1.2120     1.4190 H     1 <1>   0.0720 
 38 H        9.9910     1.4260    -0.2370 H     1 <1>   0.0720 
 39 H        7.2950     4.3620     1.8330 H     1 <1>   0.1430 
 40 H        7.4670     4.0550    -2.4380 H     1 <1>   0.1430 
 41 H       10.2220    -1.1290     1.2550 H     1 <1>   0.4450 
 42 H        9.7290     4.3300     1.9240 H     1 <1>   0.1430 
 43 H        9.9010     4.0160    -2.3250 H     1 <1>   0.1430 
 44 H       12.2940     0.8900     0.6770 H     1 <1>   0.0720 
 45 H       12.5520    -0.6680     1.4330 H     1 <1>   0.0720 
 46 H       11.6010     0.5520     2.2500 H     1 <1>   0.0720 
 47 H       11.3880    -0.3040    -1.3460 H     1 <1>   0.0720 
 48 H       10.1190    -1.4940    -1.1350 H     1 <1>   0.0720 
 49 H       11.7210    -1.8040    -0.5090 H     1 <1>   0.0720 
 50 H       11.8640     5.1250    -0.3110 H     1 <1>   0.0720 
 51 H       11.9040     3.4800    -0.8910 H     1 <1>   0.0720 
 52 H       11.8470     3.8040     0.8270 H     1 <1>   0.0720 
@<TRIPOS>BOND
  1   1   2  2   
  2   2   3  am  
  3   2   4  am  
  4   3   5  1   
  5   3   6  1   
  6   4   7  am  
  7   4  27  1   
  8   5   8  1   
  9   5   9  2   
 10   6  28  1   
 11   6  29  1   
 12   6  30  1   
 13   7   9  1   
 14   7  10  2   
 15   8  11  ar  
 16   8  31  1   
 17   9  12  1   
 18  11  12  ar  
 19  11  13  ar  
 20  12  14  1   
 21  13  15  1   
 22  13  32  1   
 23  14  16  1   
 24  14  33  1   
 25  14  34  1   
 26  15  17  1   
 27  15  35  1   
 28  15  36  1   
 29  16  18  ar  
 30  16  19  ar  
 31  17  20  1   
 32  17  37  1   
 33  17  38  1   
 34  18  21  ar  
 35  18  39  1   
 36  19  22  ar  
 37  19  40  1   
 38  20  23  1   
 39  20  24  1   
 40  20  41  1   
 41  21  25  ar  
 42  21  42  1   
 43  22  25  ar  
 44  22  43  1   
 45  23  44  1   
 46  23  45  1   
 47  23  46  1   
 48  24  47  1   
 49  24  48  1   
 50  24  49  1   
 51  25  26  1   
 52  26  50  1   
 53  26  51  1   
 54  26  52  1   
@<TRIPOS>SUBSTRUCTURE
  1 ****  11 GROUP 4 **** **** 0

# MOE 2024.06 (io_trps.svl 2023.06)
