@<TRIPOS>MOLECULE
N-[1-(5-Mercapto-4-methyl-4H-[1,2,4]triazol-3-yl)-2-methyl-propyl]-4-methyl-benz
41 42 1 0 0 
SMALL
USER_CHARGES


@<TRIPOS>ATOM
  1 S       -0.4210     0.6730    -0.8260 S.3   1 <1>  -0.9360 
  2 C       -1.1370     1.8680     0.0050 C.cat 1 <1>   0.7360 
  3 N       -0.6880     2.3410     1.1440 N.pl3 1 <1>  -0.3930 
  4 N       -2.2400     2.5190    -0.3150 N.pl3 1 <1>  -0.7640 
  5 N       -1.5040     3.3290     1.6110 N.2   1 <1>  -0.2600 
  6 C       -2.4310     3.4210     0.7200 C.2   1 <1>   0.4850 
  7 C       -3.0220     2.2640    -1.5480 C.3   1 <1>   0.2740 
  8 C       -3.5920     4.4320     0.8790 C.3   1 <1>   0.3880 
  9 N       -4.9660     3.8370     0.7290 N.am  1 <1>  -0.7300 
 10 C       -3.3290     5.8210     0.2200 C.3   1 <1>  -0.0800 
 11 C       -5.7780     3.6780    -0.3560 C.2   1 <1>   0.5440 
 12 C       -4.5220     6.7860     0.3430 C.3   1 <1>  -0.2400 
 13 C       -2.7940     5.8210    -1.2240 C.3   1 <1>  -0.2400 
 14 O       -5.4020     4.0450    -1.4470 O.2   1 <1>  -0.5700 
 15 C       -7.0830     3.0630    -0.1990 C.ar  1 <1>   0.0860 
 16 C       -8.1720     3.4930    -0.9560 C.ar  1 <1>  -0.1500 
 17 C       -7.3030     2.0220     0.7050 C.ar  1 <1>  -0.1500 
 18 C       -9.4240     2.9270    -0.8070 C.ar  1 <1>  -0.1500 
 19 C       -8.5540     1.4530     0.8580 C.ar  1 <1>  -0.1500 
 20 C       -9.6250     1.9050     0.1050 C.ar  1 <1>  -0.1430 
 21 C      -10.9990     1.2820     0.2690 C.3   1 <1>  -0.0970 
 22 H        0.1630     1.9660     1.5610 H     1 <1>   0.4500 
 23 H       -2.5050     1.5750    -2.1930 H     1 <1>   0.0800 
 24 H       -3.1680     3.1790    -2.0920 H     1 <1>   0.0800 
 25 H       -3.9750     1.8380    -1.2960 H     1 <1>   0.0800 
 26 H       -3.5540     4.6720     1.9270 H     1 <1>   0.0800 
 27 H       -5.3590     3.5370     1.6210 H     1 <1>   0.3700 
 28 H       -2.5350     6.2550     0.8040 H     1 <1>   0.0800 
 29 H       -5.3330     6.4740    -0.2910 H     1 <1>   0.0800 
 30 H       -4.2300     7.7780     0.0450 H     1 <1>   0.0800 
 31 H       -4.8750     6.8290     1.3580 H     1 <1>   0.0800 
 32 H       -3.5380     5.5010    -1.9270 H     1 <1>   0.0800 
 33 H       -1.9290     5.1890    -1.3200 H     1 <1>   0.0800 
 34 H       -2.4990     6.8180    -1.5010 H     1 <1>   0.0800 
 35 H       -8.0280     4.2850    -1.6710 H     1 <1>   0.1500 
 36 H       -6.4860     1.6420     1.2910 H     1 <1>   0.1500 
 37 H      -10.2440     3.2840    -1.4060 H     1 <1>   0.1500 
 38 H       -8.6940     0.6520     1.5630 H     1 <1>   0.1500 
 39 H      -11.7670     2.0090     0.0730 H     1 <1>   0.0800 
 40 H      -11.1300     0.9130     1.2700 H     1 <1>   0.0800 
 41 H      -11.1130     0.4640    -0.4200 H     1 <1>   0.0800 
@<TRIPOS>BOND
  1   1   2  1   
  2   2   3  ar  
  3   2   4  ar  
  4   3   5  1   
  5   3  22  1   
  6   4   6  1   
  7   4   7  1   
  8   5   6  2   
  9   6   8  1   
 10   7  23  1   
 11   7  24  1   
 12   7  25  1   
 13   8   9  1   
 14   8  10  1   
 15   8  26  1   
 16   9  11  am  
 17   9  27  1   
 18  10  12  1   
 19  10  13  1   
 20  10  28  1   
 21  11  14  2   
 22  11  15  1   
 23  12  29  1   
 24  12  30  1   
 25  12  31  1   
 26  13  32  1   
 27  13  33  1   
 28  13  34  1   
 29  15  16  ar  
 30  15  17  ar  
 31  16  18  ar  
 32  16  35  1   
 33  17  19  ar  
 34  17  36  1   
 35  18  20  ar  
 36  18  37  1   
 37  19  20  ar  
 38  19  38  1   
 39  20  21  1   
 40  21  39  1   
 41  21  40  1   
 42  21  41  1   
@<TRIPOS>SUBSTRUCTURE
  1 ****   9 GROUP 4 **** **** 0

# MOE 2024.06 (io_trps.svl 2023.06)
