@<TRIPOS>MOLECULE
[1,4]Diazepane-1,4-disulfonic acid bis-dimethylamide
41 41 1 0 0 
SMALL
USER_CHARGES


@<TRIPOS>ATOM
  1 S        0.1490    -0.2130    -0.7750 S.o2  1 <1>   1.5760 
  2 O       -0.0660    -1.6380    -0.8930 O.2   1 <1>  -0.6500 
  3 O       -0.0210     0.6510    -1.9220 O.2   1 <1>  -0.6500 
  4 N        1.6910     0.0620    -0.1410 N.am  1 <1>  -0.8490 
  5 N       -0.8220     0.3520     0.4910 N.am  1 <1>  -0.8490 
  6 C        2.7100    -0.6400    -0.9390 C.3   1 <1>   0.1960 
  7 C        1.9520     1.4970    -0.0110 C.3   1 <1>   0.1960 
  8 C       -2.2200     0.4780     0.0780 C.3   1 <1>   0.1160 
  9 C       -0.7220    -0.4880     1.6870 C.3   1 <1>   0.1160 
 10 C        4.0130    -0.8520    -0.1540 C.3   1 <1>   0.1960 
 11 C        3.2770     1.8090     0.6900 C.3   1 <1>  -0.1600 
 12 N        5.0010     0.2330    -0.2720 N.am  1 <1>  -0.8490 
 13 C        4.4890     1.6080    -0.2250 C.3   1 <1>   0.1960 
 14 S        6.2980    -0.0210     0.7800 S.o2  1 <1>   1.5760 
 15 O        6.6930    -1.4110     0.7060 O.2   1 <1>  -0.6500 
 16 O        5.9850     0.5900     2.0520 O.2   1 <1>  -0.6500 
 17 N        7.4940     0.8960     0.0080 N.am  1 <1>  -0.8490 
 18 C        7.9160     0.3080    -1.2660 C.3   1 <1>   0.1160 
 19 C        8.6540     1.1020     0.8760 C.3   1 <1>   0.1160 
 20 H        2.8970    -0.1310    -1.8700 H     1 <1>   0.0800 
 21 H        2.3430    -1.6240    -1.1780 H     1 <1>   0.0800 
 22 H        1.1630     1.9390     0.5760 H     1 <1>   0.0800 
 23 H        1.9300     1.9670    -0.9810 H     1 <1>   0.0800 
 24 H       -2.2960     1.1540    -0.7580 H     1 <1>   0.0800 
 25 H       -2.8110     0.8740     0.8870 H     1 <1>   0.0800 
 26 H       -2.6150    -0.4810    -0.2140 H     1 <1>   0.0800 
 27 H        0.3030    -0.5450     2.0130 H     1 <1>   0.0800 
 28 H       -1.0740    -1.4860     1.4820 H     1 <1>   0.0800 
 29 H       -1.3060    -0.0650     2.4860 H     1 <1>   0.0800 
 30 H        4.4740    -1.7520    -0.5240 H     1 <1>   0.0800 
 31 H        3.7690    -1.0230     0.8820 H     1 <1>   0.0800 
 32 H        3.3730     1.2630     1.6110 H     1 <1>   0.0800 
 33 H        3.2520     2.8520     0.9490 H     1 <1>   0.0800 
 34 H        5.2770     2.2710     0.0930 H     1 <1>   0.0800 
 35 H        4.2290     1.9070    -1.2260 H     1 <1>   0.0800 
 36 H        7.0660     0.1940    -1.9170 H     1 <1>   0.0800 
 37 H        8.3630    -0.6590    -1.1080 H     1 <1>   0.0800 
 38 H        8.6300     0.9520    -1.7510 H     1 <1>   0.0800 
 39 H        8.3510     1.6040     1.7800 H     1 <1>   0.0800 
 40 H        9.3850     1.7160     0.3790 H     1 <1>   0.0800 
 41 H        9.1010     0.1570     1.1370 H     1 <1>   0.0800 
@<TRIPOS>BOND
  1   1   2  2   
  2   1   3  2   
  3   1   4  am  
  4   1   5  am  
  5   4   6  1   
  6   4   7  1   
  7   5   8  1   
  8   5   9  1   
  9   6  10  1   
 10   6  20  1   
 11   6  21  1   
 12   7  11  1   
 13   7  22  1   
 14   7  23  1   
 15   8  24  1   
 16   8  25  1   
 17   8  26  1   
 18   9  27  1   
 19   9  28  1   
 20   9  29  1   
 21  10  12  1   
 22  10  30  1   
 23  10  31  1   
 24  11  13  1   
 25  11  32  1   
 26  11  33  1   
 27  12  13  1   
 28  12  14  am  
 29  13  34  1   
 30  13  35  1   
 31  14  15  2   
 32  14  16  2   
 33  14  17  am  
 34  17  18  1   
 35  17  19  1   
 36  18  36  1   
 37  18  37  1   
 38  18  38  1   
 39  19  39  1   
 40  19  40  1   
 41  19  41  1   
@<TRIPOS>SUBSTRUCTURE
  1 ****  10 GROUP 4 **** **** 0

# MOE 2024.06 (io_trps.svl 2023.06)
