@<TRIPOS>MOLECULE
2-[2-Methyl-4-(pyrrolidine-1-sulfonyl)-phenoxy]-1-pyrrolidin-1-yl-ethanone
48 50 1 0 0 
SMALL
USER_CHARGES


@<TRIPOS>ATOM
  1 S       -0.3560     0.6000    -1.0310 S.o2  1 <1>   1.4470 
  2 O       -1.2650     1.7100    -1.2150 O.2   1 <1>  -0.6500 
  3 O       -0.4920    -0.5750    -1.8660 O.2   1 <1>  -0.6500 
  4 N       -0.5300     0.0900     0.5750 N.am  1 <1>  -0.8490 
  5 C        1.3520     1.2020    -1.0840 C.ar  1 <1>  -0.0090 
  6 C       -1.9110    -0.1590     0.9410 C.3   1 <1>   0.1960 
  7 C        0.1860    -1.1290     0.9080 C.3   1 <1>   0.1960 
  8 C        1.8150     2.1100    -0.1400 C.ar  1 <1>  -0.1500 
  9 C        2.2370     0.7750    -2.0660 C.ar  1 <1>  -0.1500 
 10 C       -1.8270    -0.9620     2.2340 C.3   1 <1>  -0.1600 
 11 C       -0.4230    -1.5670     2.2330 C.3   1 <1>  -0.1600 
 12 C        3.1200     2.5730    -0.1540 C.ar  1 <1>  -0.1430 
 13 C        3.5440     1.2260    -2.0980 C.ar  1 <1>  -0.1500 
 14 C        3.9960     2.1200    -1.1340 C.ar  1 <1>   0.0830 
 15 C        3.5790     3.5710     0.9010 C.3   1 <1>  -0.0970 
 16 O        5.2720     2.5760    -1.0960 O.3   1 <1>  -0.3630 
 17 C        6.2960     1.9870    -1.8830 C.3   1 <1>   0.1810 
 18 C        7.6760     2.4330    -1.4140 C.2   1 <1>   0.5690 
 19 O        8.3680     3.0450    -2.1950 O.2   1 <1>  -0.5700 
 20 N        8.1270     2.1110    -0.1600 N.am  1 <1>  -0.6600 
 21 C        7.3690     1.3890     0.8860 C.3   1 <1>   0.1400 
 22 C        9.4670     2.5010     0.3240 C.3   1 <1>   0.1400 
 23 C        8.2230     1.5160     2.1430 C.3   1 <1>  -0.1600 
 24 C        9.6440     1.7330     1.6290 C.3   1 <1>  -0.1600 
 25 H       -2.3930    -0.7460     0.1750 H     1 <1>   0.0800 
 26 H       -2.4480     0.7670     1.0720 H     1 <1>   0.0800 
 27 H        1.2450    -0.9500     0.9910 H     1 <1>   0.0800 
 28 H        0.0040    -1.8880     0.1630 H     1 <1>   0.0800 
 29 H        1.1310     2.4530     0.6180 H     1 <1>   0.1500 
 30 H        1.8960     0.0810    -2.8170 H     1 <1>   0.1500 
 31 H       -2.5930    -1.7170     2.2600 H     1 <1>   0.0800 
 32 H       -1.9520    -0.3060     3.0780 H     1 <1>   0.0800 
 33 H        0.1560    -1.1640     3.0450 H     1 <1>   0.0800 
 34 H       -0.4410    -2.6400     2.3130 H     1 <1>   0.0800 
 35 H        4.1860     0.8730    -2.8830 H     1 <1>   0.1500 
 36 H        2.7580     3.8920     1.5160 H     1 <1>   0.0800 
 37 H        4.0040     4.4360     0.4240 H     1 <1>   0.0800 
 38 H        4.3260     3.1220     1.5290 H     1 <1>   0.0800 
 39 H        6.1460     2.2840    -2.9040 H     1 <1>   0.0800 
 40 H        6.2280     0.9200    -1.7960 H     1 <1>   0.0800 
 41 H        7.2700     0.3550     0.6020 H     1 <1>   0.0800 
 42 H        6.3950     1.8220     1.0350 H     1 <1>   0.0800 
 43 H        9.4780     3.5630     0.5010 H     1 <1>   0.0800 
 44 H       10.2250     2.2470    -0.3980 H     1 <1>   0.0800 
 45 H        8.1410     0.6480     2.7730 H     1 <1>   0.0800 
 46 H        7.9000     2.3820     2.6960 H     1 <1>   0.0800 
 47 H       10.2570     2.2720     2.3290 H     1 <1>   0.0800 
 48 H       10.1050     0.7850     1.4150 H     1 <1>   0.0800 
@<TRIPOS>BOND
  1   1   2  2   
  2   1   3  2   
  3   1   4  am  
  4   1   5  1   
  5   4   6  1   
  6   4   7  1   
  7   5   8  ar  
  8   5   9  ar  
  9   6  10  1   
 10   6  25  1   
 11   6  26  1   
 12   7  11  1   
 13   7  27  1   
 14   7  28  1   
 15   8  12  ar  
 16   8  29  1   
 17   9  13  ar  
 18   9  30  1   
 19  10  11  1   
 20  10  31  1   
 21  10  32  1   
 22  11  33  1   
 23  11  34  1   
 24  12  14  ar  
 25  12  15  1   
 26  13  14  ar  
 27  13  35  1   
 28  14  16  1   
 29  15  36  1   
 30  15  37  1   
 31  15  38  1   
 32  16  17  1   
 33  17  18  1   
 34  17  39  1   
 35  17  40  1   
 36  18  19  2   
 37  18  20  am  
 38  20  21  1   
 39  20  22  1   
 40  21  23  1   
 41  21  41  1   
 42  21  42  1   
 43  22  24  1   
 44  22  43  1   
 45  22  44  1   
 46  23  24  1   
 47  23  45  1   
 48  23  46  1   
 49  24  47  1   
 50  24  48  1   
@<TRIPOS>SUBSTRUCTURE
  1 ****  12 GROUP 4 **** **** 0

# MOE 2024.06 (io_trps.svl 2023.06)
