@<TRIPOS>MOLECULE
1-(5-Chloro-2-methoxy-benzenesulfonyl)-piperidine-4-carboxylic acid (2-methoxy-1
51 52 1 0 0 
SMALL
USER_CHARGES


@<TRIPOS>ATOM
  1 CL       0.5390     0.9620     2.5860 Cl    1 <1>  -0.1770 
  2 C        0.5650     2.5260     1.8120 C.ar  1 <1>   0.1770 
  3 C        1.3260     2.7050     0.6730 C.ar  1 <1>  -0.1500 
  4 C       -0.1740     3.5600     2.3520 C.ar  1 <1>  -0.1500 
  5 C        1.3650     3.9380     0.0280 C.ar  1 <1>  -0.0090 
  6 C       -0.1420     4.7950     1.7330 C.ar  1 <1>  -0.1500 
  7 S        2.3800     4.1440    -1.4620 S.o2  1 <1>   1.4470 
  8 C        0.6190     4.9780     0.5850 C.ar  1 <1>   0.0830 
  9 O        2.5660     2.8330    -2.0460 O.2   1 <1>  -0.6500 
 10 O        1.9040     5.1990    -2.3320 O.2   1 <1>  -0.6500 
 11 N        3.8990     4.6330    -0.8820 N.am  1 <1>  -0.8490 
 12 O        0.6430     6.2080     0.0360 O.3   1 <1>  -0.3630 
 13 C        3.8770     6.0080    -0.3700 C.3   1 <1>   0.1960 
 14 C        4.9290     4.4570    -1.9110 C.3   1 <1>   0.1960 
 15 C       -0.4830     6.5870    -0.7240 C.3   1 <1>   0.0400 
 16 C        5.2320     6.3810     0.2370 C.3   1 <1>  -0.1600 
 17 C        6.3160     4.7850    -1.3530 C.3   1 <1>  -0.1600 
 18 C        6.3660     6.2130    -0.7850 C.3   1 <1>  -0.0190 
 19 C        7.7250     6.5440    -0.1710 C.2   1 <1>   0.5690 
 20 O        8.1850     5.8170     0.6760 O.2   1 <1>  -0.5700 
 21 N        8.3670     7.6650    -0.6000 N.am  1 <1>  -0.7300 
 22 C        9.6450     8.2310    -0.0970 C.3   1 <1>   0.2200 
 23 C       10.7430     7.1650     0.0630 C.3   1 <1>   0.1200 
 24 C        9.3590     8.9740     1.2080 C.3   1 <1>  -0.2400 
 25 O       11.9760     7.7980     0.2430 O.3   1 <1>  -0.5600 
 26 C       13.0270     6.9170     0.4710 C.3   1 <1>   0.0400 
 27 H        1.8930     1.8750     0.2860 H     1 <1>   0.1500 
 28 H       -0.7570     3.3960     3.2410 H     1 <1>   0.1500 
 29 H       -0.6980     5.6200     2.1410 H     1 <1>   0.1500 
 30 H        3.1310     6.0960     0.4000 H     1 <1>   0.0800 
 31 H        3.6260     6.6940    -1.1630 H     1 <1>   0.0800 
 32 H        4.7100     5.0870    -2.7580 H     1 <1>   0.0800 
 33 H        4.9350     3.4330    -2.2500 H     1 <1>   0.0800 
 34 H       -0.2990     7.5640    -1.1340 H     1 <1>   0.0800 
 35 H       -1.3500     6.6110    -0.0870 H     1 <1>   0.0800 
 36 H       -0.6210     5.8780    -1.5220 H     1 <1>   0.0800 
 37 H        5.4150     5.7530     1.0920 H     1 <1>   0.0800 
 38 H        5.2000     7.3990     0.5800 H     1 <1>   0.0800 
 39 H        7.0500     4.6780    -2.1310 H     1 <1>   0.0800 
 40 H        6.5540     4.0740    -0.5800 H     1 <1>   0.0800 
 41 H        6.1880     6.8960    -1.5960 H     1 <1>   0.0800 
 42 H        7.9010     8.2590    -1.2840 H     1 <1>   0.3700 
 43 H        9.9960     8.9380    -0.8300 H     1 <1>   0.0800 
 44 H       10.8010     6.5570    -0.8220 H     1 <1>   0.0800 
 45 H       10.5470     6.5490     0.9230 H     1 <1>   0.0800 
 46 H        9.0130     8.2870     1.9600 H     1 <1>   0.0800 
 47 H        8.6210     9.7390     1.0520 H     1 <1>   0.0800 
 48 H       10.2610     9.4390     1.5640 H     1 <1>   0.0800 
 49 H       13.9270     7.4930     0.5910 H     1 <1>   0.0800 
 50 H       13.1270     6.2560    -0.3720 H     1 <1>   0.0800 
 51 H       12.8320     6.3570     1.3700 H     1 <1>   0.0800 
@<TRIPOS>BOND
  1   1   2  1   
  2   2   3  ar  
  3   2   4  ar  
  4   3   5  ar  
  5   3  27  1   
  6   4   6  ar  
  7   4  28  1   
  8   5   7  1   
  9   5   8  ar  
 10   6   8  ar  
 11   6  29  1   
 12   7   9  2   
 13   7  10  2   
 14   7  11  am  
 15   8  12  1   
 16  11  13  1   
 17  11  14  1   
 18  12  15  1   
 19  13  16  1   
 20  13  30  1   
 21  13  31  1   
 22  14  17  1   
 23  14  32  1   
 24  14  33  1   
 25  15  34  1   
 26  15  35  1   
 27  15  36  1   
 28  16  18  1   
 29  16  37  1   
 30  16  38  1   
 31  17  18  1   
 32  17  39  1   
 33  17  40  1   
 34  18  19  1   
 35  18  41  1   
 36  19  20  2   
 37  19  21  am  
 38  21  22  1   
 39  21  42  1   
 40  22  23  1   
 41  22  24  1   
 42  22  43  1   
 43  23  25  1   
 44  23  44  1   
 45  23  45  1   
 46  24  46  1   
 47  24  47  1   
 48  24  48  1   
 49  25  26  1   
 50  26  49  1   
 51  26  50  1   
 52  26  51  1   
@<TRIPOS>SUBSTRUCTURE
  1 ****  13 GROUP 4 **** **** 0

# MOE 2024.06 (io_trps.svl 2023.06)
