@<TRIPOS>MOLECULE
(4-Ethylamino-6-morpholin-4-yl-[1,3,5]triazin-2-yl)-(2-p-tolyloxy-ethyl)-cyanami
53 55 1 0 0 
SMALL
USER_CHARGES


@<TRIPOS>ATOM
  1 O       -0.6610     0.6970     0.3050 O.3   1 <1>  -0.5600 
  2 C       -1.8400     0.0140    -0.0230 C.3   1 <1>   0.1200 
  3 C       -0.8160     2.0900     0.3790 C.3   1 <1>   0.1200 
  4 C       -2.9430     0.2780     1.0180 C.3   1 <1>   0.2090 
  5 C       -1.8670     2.4770     1.4330 C.3   1 <1>   0.2090 
  6 N       -3.1580     1.7500     1.1850 N.pl3 1 <1>  -0.8380 
  7 C       -4.3330     2.3800     0.8310 C.ar  1 <1>   0.7200 
  8 N       -4.2980     3.6790     0.7250 N.ar  1 <1>  -0.6200 
  9 N       -5.3880     1.6400     0.6170 N.ar  1 <1>  -0.6200 
 10 C       -5.4130     4.2340     0.3350 C.ar  1 <1>   0.8190 
 11 C       -6.4390     2.3100     0.2530 C.ar  1 <1>   0.7200 
 12 N       -6.5260     3.6000     0.0880 N.ar  1 <1>  -0.6200 
 13 N       -5.3900     5.6030     0.1620 N.pl3 1 <1>  -0.6810 
 14 N       -7.5410     1.5610     0.0290 N.pl3 1 <1>  -0.8690 
 15 C       -6.4610     6.2900    -0.4330 C.1   1 <1>   0.6830 
 16 C       -4.2200     6.4300     0.5770 C.3   1 <1>   0.1960 
 17 C       -8.9080     2.0940    -0.1050 C.3   1 <1>   0.2090 
 18 N       -7.2930     6.8960    -0.9180 N.1   1 <1>  -0.5570 
 19 C       -3.0780     6.3130    -0.4380 C.3   1 <1>   0.1200 
 20 C       -9.8300     0.9500    -0.5020 C.3   1 <1>  -0.2400 
 21 O       -1.8700     6.6470     0.2160 O.3   1 <1>  -0.3630 
 22 C       -0.7340     5.9730    -0.0820 C.ar  1 <1>   0.0820 
 23 C       -0.4790     5.4320    -1.3380 C.ar  1 <1>  -0.1500 
 24 C        0.1980     5.8180     0.9310 C.ar  1 <1>  -0.1500 
 25 C        0.6900     4.7260    -1.5610 C.ar  1 <1>  -0.1500 
 26 C        1.3660     5.1130     0.7030 C.ar  1 <1>  -0.1500 
 27 C        1.6160     4.5600    -0.5440 C.ar  1 <1>  -0.1430 
 28 C        2.8900     3.7740    -0.7960 C.3   1 <1>  -0.0970 
 29 H       -1.6110    -1.0360    -0.0600 H     1 <1>   0.0800 
 30 H       -2.1640     0.3330    -0.9980 H     1 <1>   0.0800 
 31 H       -1.1030     2.4600    -0.5900 H     1 <1>   0.0800 
 32 H        0.1370     2.5120     0.6400 H     1 <1>   0.0800 
 33 H       -2.6450    -0.1430     1.9620 H     1 <1>   0.0800 
 34 H       -3.8420    -0.2230     0.7080 H     1 <1>   0.0800 
 35 H       -1.9950     3.5440     1.4210 H     1 <1>   0.0800 
 36 H       -1.4980     2.2100     2.4070 H     1 <1>   0.0800 
 37 H       -7.4550     0.5960     0.3420 H     1 <1>   0.4000 
 38 H       -3.8760     6.0870     1.5380 H     1 <1>   0.0800 
 39 H       -4.5090     7.4630     0.6760 H     1 <1>   0.0800 
 40 H       -8.9240     2.8640    -0.8600 H     1 <1>   0.0800 
 41 H       -9.2210     2.5230     0.8330 H     1 <1>   0.0800 
 42 H       -3.2160     6.9860    -1.2650 H     1 <1>   0.0800 
 43 H       -3.0050     5.3000    -0.7920 H     1 <1>   0.0800 
 44 H       -9.5110     0.5250    -1.4360 H     1 <1>   0.0800 
 45 H      -10.8310     1.3220    -0.6210 H     1 <1>   0.0800 
 46 H       -9.8370     0.1910     0.2600 H     1 <1>   0.0800 
 47 H       -1.1760     5.5600    -2.1450 H     1 <1>   0.1500 
 48 H        0.0030     6.2500     1.8950 H     1 <1>   0.1500 
 49 H        0.8780     4.3050    -2.5340 H     1 <1>   0.1500 
 50 H        2.0800     4.9970     1.4990 H     1 <1>   0.1500 
 51 H        2.6960     2.7220    -0.6860 H     1 <1>   0.0800 
 52 H        3.6570     4.0600    -0.0980 H     1 <1>   0.0800 
 53 H        3.2520     3.9590    -1.7910 H     1 <1>   0.0800 
@<TRIPOS>BOND
  1   1   2  1   
  2   1   3  1   
  3   2   4  1   
  4   2  29  1   
  5   2  30  1   
  6   3   5  1   
  7   3  31  1   
  8   3  32  1   
  9   4   6  1   
 10   4  33  1   
 11   4  34  1   
 12   5   6  1   
 13   5  35  1   
 14   5  36  1   
 15   6   7  1   
 16   7   8  ar  
 17   7   9  ar  
 18   8  10  ar  
 19   9  11  ar  
 20  10  12  ar  
 21  10  13  1   
 22  11  12  ar  
 23  11  14  1   
 24  13  15  1   
 25  13  16  1   
 26  14  17  1   
 27  14  37  1   
 28  15  18  3   
 29  16  19  1   
 30  16  38  1   
 31  16  39  1   
 32  17  20  1   
 33  17  40  1   
 34  17  41  1   
 35  19  21  1   
 36  19  42  1   
 37  19  43  1   
 38  20  44  1   
 39  20  45  1   
 40  20  46  1   
 41  21  22  1   
 42  22  23  ar  
 43  22  24  ar  
 44  23  25  ar  
 45  23  47  1   
 46  24  26  ar  
 47  24  48  1   
 48  25  27  ar  
 49  25  49  1   
 50  26  27  ar  
 51  26  50  1   
 52  27  28  1   
 53  28  51  1   
 54  28  52  1   
 55  28  53  1   
@<TRIPOS>SUBSTRUCTURE
  1 ****   8 GROUP 4 **** **** 0

# MOE 2024.06 (io_trps.svl 2023.06)
