@<TRIPOS>MOLECULE
2-(4-Cyclohexyl-5-methyl-4H-[1,2,4]triazol-3-ylsulfanyl)-N-(4-ethoxy-phenyl)-ace
52 54 1 0 0 
SMALL
USER_CHARGES


@<TRIPOS>ATOM
  1 S       -0.4710    -1.4620    -0.4420 S.3   1 <1>  -0.2860 
  2 C        1.2900    -1.0970    -0.4570 C.2   1 <1>   0.2420 
  3 C       -1.2410     0.2060    -0.7530 C.3   1 <1>   0.1310 
  4 N        1.7320     0.0980    -0.6300 N.2   1 <1>  -0.3380 
  5 N        2.2570    -2.0080    -0.2920 N.pl3 1 <1>   0.0480 
  6 C       -2.7610     0.1410    -0.7360 C.2   1 <1>   0.5690 
  7 N        3.0610     0.0050    -0.5820 N.2   1 <1>  -0.3380 
  8 C        3.3550    -1.2360    -0.3830 C.2   1 <1>   0.0060 
  9 C        2.2050    -3.4800    -0.0660 C.3   1 <1>   0.1760 
 10 O       -3.3670     1.0850    -1.1820 O.2   1 <1>  -0.5700 
 11 N       -3.3680    -0.9720    -0.2190 N.am  1 <1>  -0.5470 
 12 C        4.7830    -1.7380    -0.2700 C.3   1 <1>  -0.0600 
 13 C        1.5680    -4.2180    -1.2560 C.3   1 <1>  -0.1600 
 14 C        1.5110    -3.8290     1.2620 C.3   1 <1>  -0.1600 
 15 C       -4.7200    -1.3160    -0.0510 C.ar  1 <1>   0.1170 
 16 C        1.5570    -5.7350    -1.0170 C.3   1 <1>  -0.1600 
 17 C        1.5000    -5.3470     1.4920 C.3   1 <1>  -0.1600 
 18 C       -5.0420    -2.6520     0.1550 C.ar  1 <1>  -0.1500 
 19 C       -5.7530    -0.3830    -0.0670 C.ar  1 <1>  -0.1500 
 20 C        0.8610    -6.0840     0.3070 C.3   1 <1>  -0.1600 
 21 C       -6.3550    -3.0460     0.3360 C.ar  1 <1>  -0.1500 
 22 C       -7.0690    -0.7710     0.1120 C.ar  1 <1>  -0.1500 
 23 C       -7.3780    -2.1130     0.3160 C.ar  1 <1>   0.0830 
 24 O       -8.6390    -2.5840     0.5000 O.3   1 <1>  -0.3630 
 25 C       -9.7470    -1.7150     0.4730 C.3   1 <1>   0.1200 
 26 C      -11.0050    -2.5480     0.6970 C.3   1 <1>  -0.2400 
 27 H       -0.8920     0.5420    -1.7120 H     1 <1>   0.0800 
 28 H       -0.8870     0.8690     0.0130 H     1 <1>   0.0800 
 29 H        3.2180    -3.8300     0.0110 H     1 <1>   0.0800 
 30 H       -2.7110    -1.7070     0.0470 H     1 <1>   0.3700 
 31 H        4.9430    -2.1890     0.6920 H     1 <1>   0.0800 
 32 H        5.4670    -0.9150    -0.3790 H     1 <1>   0.0800 
 33 H        4.9870    -2.4560    -1.0430 H     1 <1>   0.0800 
 34 H        2.1230    -4.0040    -2.1530 H     1 <1>   0.0800 
 35 H        0.5550    -3.8890    -1.3990 H     1 <1>   0.0800 
 36 H        0.4950    -3.4790     1.2540 H     1 <1>   0.0800 
 37 H        2.0270    -3.3510     2.0770 H     1 <1>   0.0800 
 38 H        2.5680    -6.1040    -0.9950 H     1 <1>   0.0800 
 39 H        1.0480    -6.2240    -1.8300 H     1 <1>   0.0800 
 40 H        0.9530    -5.5720     2.3920 H     1 <1>   0.0800 
 41 H        2.5090    -5.6990     1.6270 H     1 <1>   0.0800 
 42 H       -4.2650    -3.3930     0.1720 H     1 <1>   0.1500 
 43 H       -5.5350     0.6580    -0.2170 H     1 <1>   0.1500 
 44 H        0.9160    -7.1460     0.4720 H     1 <1>   0.0800 
 45 H       -0.1810    -5.8180     0.2420 H     1 <1>   0.0800 
 46 H       -6.5990    -4.0810     0.4940 H     1 <1>   0.1500 
 47 H       -7.8320    -0.0180     0.0900 H     1 <1>   0.1500 
 48 H       -9.7770    -1.2320    -0.4890 H     1 <1>   0.0800 
 49 H       -9.6290    -0.9860     1.2560 H     1 <1>   0.0800 
 50 H      -11.1040    -3.2830    -0.0810 H     1 <1>   0.0800 
 51 H      -11.8710    -1.9110     0.6810 H     1 <1>   0.0800 
 52 H      -10.9570    -3.0400     1.6520 H     1 <1>   0.0800 
@<TRIPOS>BOND
  1   1   2  1   
  2   1   3  1   
  3   2   4  2   
  4   2   5  1   
  5   3   6  1   
  6   3  27  1   
  7   3  28  1   
  8   4   7  1   
  9   5   8  1   
 10   5   9  1   
 11   6  10  2   
 12   6  11  am  
 13   7   8  2   
 14   8  12  1   
 15   9  13  1   
 16   9  14  1   
 17   9  29  1   
 18  11  15  1   
 19  11  30  1   
 20  12  31  1   
 21  12  32  1   
 22  12  33  1   
 23  13  16  1   
 24  13  34  1   
 25  13  35  1   
 26  14  17  1   
 27  14  36  1   
 28  14  37  1   
 29  15  18  ar  
 30  15  19  ar  
 31  16  20  1   
 32  16  38  1   
 33  16  39  1   
 34  17  20  1   
 35  17  40  1   
 36  17  41  1   
 37  18  21  ar  
 38  18  42  1   
 39  19  22  ar  
 40  19  43  1   
 41  20  44  1   
 42  20  45  1   
 43  21  23  ar  
 44  21  46  1   
 45  22  23  ar  
 46  22  47  1   
 47  23  24  1   
 48  24  25  1   
 49  25  26  1   
 50  25  48  1   
 51  25  49  1   
 52  26  50  1   
 53  26  51  1   
 54  26  52  1   
@<TRIPOS>SUBSTRUCTURE
  1 ****   1 GROUP 4 **** **** 0

# MOE 2024.06 (io_trps.svl 2023.06)
