@<TRIPOS>MOLECULE
4-[4-(2-Fluoro-phenyl)-piperazine-1-sulfonyl]-morpholine
42 44 1 0 0 
SMALL
USER_CHARGES


@<TRIPOS>ATOM
  1 S        0.3100    -0.1040     1.5570 S.o2  1 <1>   1.5760 
  2 O       -0.1380    -1.2740     2.2770 O.2   1 <1>  -0.6500 
  3 O        0.8190     1.0500     2.2630 O.2   1 <1>  -0.6500 
  4 N       -0.9300     0.3960     0.5310 N.am  1 <1>  -0.8490 
  5 N        1.4560    -0.5740     0.4150 N.am  1 <1>  -0.8490 
  6 C       -1.5450    -0.7360    -0.1800 C.3   1 <1>   0.1960 
  7 C       -1.9670     1.1190     1.2760 C.3   1 <1>   0.1960 
  8 C        2.0160     0.5890    -0.3000 C.3   1 <1>   0.1960 
  9 C        2.5480    -1.3300     1.0550 C.3   1 <1>   0.1960 
 10 C       -2.6960    -0.2570    -1.0830 C.3   1 <1>   0.1200 
 11 C       -3.1140     1.5550     0.3450 C.3   1 <1>   0.1200 
 12 C        3.0530     0.1810    -1.3650 C.3   1 <1>   0.2090 
 13 C        3.6020    -1.8170     0.0410 C.3   1 <1>   0.2090 
 14 O       -3.6450     0.4520    -0.3360 O.3   1 <1>  -0.5600 
 15 N        4.1240    -0.6920    -0.7930 N.pl3 1 <1>  -0.8380 
 16 C        5.4260    -0.2180    -0.5540 C.ar  1 <1>   0.1000 
 17 C        6.5680    -1.0030    -0.7600 C.ar  1 <1>   0.1900 
 18 C        5.6410     1.0750    -0.0830 C.ar  1 <1>  -0.1500 
 19 F        6.4390    -2.2350    -1.1950 F     1 <1>  -0.1900 
 20 C        7.8500    -0.5450    -0.5290 C.ar  1 <1>  -0.1500 
 21 C        6.9200     1.5530     0.1550 C.ar  1 <1>  -0.1500 
 22 C        8.0260     0.7490    -0.0670 C.ar  1 <1>  -0.1500 
 23 H       -1.9320    -1.4550     0.5230 H     1 <1>   0.0800 
 24 H       -0.8040    -1.2290    -0.7860 H     1 <1>   0.0800 
 25 H       -1.5380     1.9940     1.7340 H     1 <1>   0.0800 
 26 H       -2.3660     0.4940     2.0590 H     1 <1>   0.0800 
 27 H        2.4870     1.2580     0.3990 H     1 <1>   0.0800 
 28 H        1.2210     1.1290    -0.7850 H     1 <1>   0.0800 
 29 H        2.1410    -2.1900     1.5600 H     1 <1>   0.0800 
 30 H        3.0350    -0.7140     1.7930 H     1 <1>   0.0800 
 31 H       -3.1930    -1.0990    -1.5310 H     1 <1>   0.0800 
 32 H       -2.3220     0.3830    -1.8620 H     1 <1>   0.0800 
 33 H       -2.7600     2.2680    -0.3790 H     1 <1>   0.0800 
 34 H       -3.9080     2.0020     0.9150 H     1 <1>   0.0800 
 35 H        3.4930     1.0610    -1.8010 H     1 <1>   0.0800 
 36 H        2.5530    -0.3560    -2.1510 H     1 <1>   0.0800 
 37 H        3.1600    -2.5550    -0.6040 H     1 <1>   0.0800 
 38 H        4.4130    -2.2850     0.5710 H     1 <1>   0.0800 
 39 H        4.8020     1.7160     0.1070 H     1 <1>   0.1500 
 40 H        8.6920    -1.1880    -0.7090 H     1 <1>   0.1500 
 41 H        7.0540     2.5570     0.5180 H     1 <1>   0.1500 
 42 H        9.0170     1.1270     0.1190 H     1 <1>   0.1500 
@<TRIPOS>BOND
  1   1   2  2   
  2   1   3  2   
  3   1   4  am  
  4   1   5  am  
  5   4   6  1   
  6   4   7  1   
  7   5   8  1   
  8   5   9  1   
  9   6  10  1   
 10   6  23  1   
 11   6  24  1   
 12   7  11  1   
 13   7  25  1   
 14   7  26  1   
 15   8  12  1   
 16   8  27  1   
 17   8  28  1   
 18   9  13  1   
 19   9  29  1   
 20   9  30  1   
 21  10  14  1   
 22  10  31  1   
 23  10  32  1   
 24  11  14  1   
 25  11  33  1   
 26  11  34  1   
 27  12  15  1   
 28  12  35  1   
 29  12  36  1   
 30  13  15  1   
 31  13  37  1   
 32  13  38  1   
 33  15  16  1   
 34  16  17  ar  
 35  16  18  ar  
 36  17  19  1   
 37  17  20  ar  
 38  18  21  ar  
 39  18  39  1   
 40  20  22  ar  
 41  20  40  1   
 42  21  22  ar  
 43  21  41  1   
 44  22  42  1   
@<TRIPOS>SUBSTRUCTURE
  1 ****   8 GROUP 4 **** **** 0

# MOE 2024.06 (io_trps.svl 2023.06)
