@<TRIPOS>MOLECULE
4-[2-(5-Methyl-[1,3,4]thiadiazol-2-ylsulfanyl)-butyrylamino]-benzoic acid ethyl
43 44 1 0 0 
SMALL
USER_CHARGES


@<TRIPOS>ATOM
  1 S       -0.2590     0.4460     2.1210 S.3   1 <1>  -0.0800 
  2 C       -0.8110     0.7660     0.5200 C.2   1 <1>   0.4340 
  3 C        1.3320     0.7590     1.5090 C.2   1 <1>   0.1980 
  4 S       -2.5690     0.6400     0.2380 S.3   1 <1>  -0.2860 
  5 N        0.1060     1.0600    -0.3100 N.2   1 <1>  -0.3380 
  6 N        1.3480     1.0540     0.2700 N.2   1 <1>  -0.3380 
  7 C        2.4940     0.6540     2.4710 C.3   1 <1>  -0.0600 
  8 C       -2.7590     1.0180    -1.5780 C.3   1 <1>   0.2110 
  9 C       -3.9750     1.9240    -1.7900 C.2   1 <1>   0.5690 
 10 C       -2.8890    -0.3100    -2.3490 C.3   1 <1>  -0.1600 
 11 O       -3.9660     2.6730    -2.7360 O.2   1 <1>  -0.5700 
 12 N       -5.0220     1.8370    -0.9060 N.am  1 <1>  -0.5470 
 13 C       -1.6270    -1.1840    -2.2940 C.3   1 <1>  -0.2400 
 14 C       -6.2650     2.4750    -0.8630 C.ar  1 <1>   0.1170 
 15 C       -6.8370     3.1250    -1.9520 C.ar  1 <1>  -0.1500 
 16 C       -6.9860     2.4510     0.3260 C.ar  1 <1>  -0.1500 
 17 C       -8.0750     3.7290    -1.8520 C.ar  1 <1>  -0.1500 
 18 C       -8.2240     3.0550     0.4240 C.ar  1 <1>  -0.1500 
 19 C       -8.8080     3.7140    -0.6630 C.ar  1 <1>   0.0860 
 20 C      -10.1070     4.3520    -0.5740 C.2   1 <1>   0.6340 
 21 O      -10.6360     4.9220    -1.5080 O.2   1 <1>  -0.5700 
 22 O      -10.7510     4.3060     0.5970 O.3   1 <1>  -0.4300 
 23 C      -12.0180     4.9020     0.7660 C.3   1 <1>   0.1200 
 24 C      -12.4620     4.6670     2.2060 C.3   1 <1>  -0.2400 
 25 H        2.5460    -0.3400     2.8740 H     1 <1>   0.0800 
 26 H        2.3680     1.3570     3.2740 H     1 <1>   0.0800 
 27 H        3.4120     0.8720     1.9570 H     1 <1>   0.0800 
 28 H       -1.8790     1.5510    -1.8910 H     1 <1>   0.0800 
 29 H       -3.0910    -0.0780    -3.3810 H     1 <1>   0.0800 
 30 H       -3.7300    -0.8650    -1.9730 H     1 <1>   0.0800 
 31 H       -4.8240     1.2370    -0.1040 H     1 <1>   0.3700 
 32 H       -0.7700    -0.6310    -2.6400 H     1 <1>   0.0800 
 33 H       -1.7510    -2.0460    -2.9260 H     1 <1>   0.0800 
 34 H       -1.4350    -1.5280    -1.2940 H     1 <1>   0.0800 
 35 H       -6.3170     3.1610    -2.8920 H     1 <1>   0.1500 
 36 H       -6.5720     1.9570     1.1860 H     1 <1>   0.1500 
 37 H       -8.4890     4.2250    -2.7130 H     1 <1>   0.1500 
 38 H       -8.7520     3.0170     1.3620 H     1 <1>   0.1500 
 39 H      -12.7040     4.4490     0.0700 H     1 <1>   0.0800 
 40 H      -11.9310     5.9550     0.5540 H     1 <1>   0.0800 
 41 H      -12.5340     3.6130     2.4050 H     1 <1>   0.0800 
 42 H      -13.4280     5.1120     2.3640 H     1 <1>   0.0800 
 43 H      -11.7620     5.1170     2.8880 H     1 <1>   0.0800 
@<TRIPOS>BOND
  1   1   2  1   
  2   1   3  1   
  3   2   4  1   
  4   2   5  2   
  5   3   6  2   
  6   3   7  1   
  7   4   8  1   
  8   5   6  1   
  9   7  25  1   
 10   7  26  1   
 11   7  27  1   
 12   8   9  1   
 13   8  10  1   
 14   8  28  1   
 15   9  11  2   
 16   9  12  am  
 17  10  13  1   
 18  10  29  1   
 19  10  30  1   
 20  12  14  1   
 21  12  31  1   
 22  13  32  1   
 23  13  33  1   
 24  13  34  1   
 25  14  15  ar  
 26  14  16  ar  
 27  15  17  ar  
 28  15  35  1   
 29  16  18  ar  
 30  16  36  1   
 31  17  19  ar  
 32  17  37  1   
 33  18  19  ar  
 34  18  38  1   
 35  19  20  1   
 36  20  21  2   
 37  20  22  1   
 38  22  23  1   
 39  23  24  1   
 40  23  39  1   
 41  23  40  1   
 42  24  41  1   
 43  24  42  1   
 44  24  43  1   
@<TRIPOS>SUBSTRUCTURE
  1 ****  12 GROUP 4 **** **** 0

# MOE 2024.06 (io_trps.svl 2023.06)
