@<TRIPOS>MOLECULE
4-[3-(3,4-Dimethoxy-phenyl)-[1,2,4]oxadiazol-5-yl]-N-(2,5-dimethyl-phenyl)-butyr
54 56 1 0 0 
SMALL
USER_CHARGES


@<TRIPOS>ATOM
  1 O       -0.2730    -1.5150    -1.4950 O.2   1 <1>  -0.5700 
  2 C       -1.2930    -2.0980    -1.2280 C.2   1 <1>   0.5690 
  3 N       -1.2860    -3.4480    -1.0780 N.am  1 <1>  -0.5470 
  4 C       -2.5710    -1.2990    -1.0360 C.3   1 <1>  -0.0990 
  5 C       -2.3530    -4.3130    -0.8110 C.ar  1 <1>   0.1170 
  6 C       -2.5830    -0.5630     0.3200 C.3   1 <1>  -0.1600 
  7 C       -2.5640    -4.8370     0.4640 C.ar  1 <1>  -0.1430 
  8 C       -3.2220    -4.6560    -1.8390 C.ar  1 <1>  -0.1500 
  9 C       -4.0040    -0.1900     0.7720 C.3   1 <1>   0.0200 
 10 C       -3.6360    -5.6860     0.6830 C.ar  1 <1>  -0.1500 
 11 C       -1.6460    -4.4820     1.6260 C.3   1 <1>  -0.0970 
 12 C       -4.2930    -5.5030    -1.6180 C.ar  1 <1>  -0.1430 
 13 C       -4.7990    -1.4300     1.1400 C.2   1 <1>   0.2980 
 14 C       -4.4950    -6.0190    -0.3500 C.ar  1 <1>  -0.1500 
 15 C       -5.2380    -5.8520    -2.7550 C.3   1 <1>  -0.0970 
 16 O       -4.5610    -2.0120     2.2860 O.3   1 <1>  -0.0190 
 17 N       -5.6770    -1.9870     0.4160 N.2   1 <1>  -0.5650 
 18 N       -5.3450    -3.0430     2.2840 N.2   1 <1>  -0.4100 
 19 C       -5.9930    -3.0420     1.1720 C.2   1 <1>   0.4620 
 20 C       -6.9400    -4.0570     0.7440 C.ar  1 <1>   0.0540 
 21 C       -7.4090    -4.1120    -0.5680 C.ar  1 <1>  -0.1500 
 22 C       -7.4040    -5.0350     1.6220 C.ar  1 <1>  -0.1500 
 23 C       -8.2840    -5.0920    -0.9990 C.ar  1 <1>   0.0830 
 24 C       -8.2760    -6.0270     1.2120 C.ar  1 <1>  -0.1500 
 25 O       -8.6450    -5.0200    -2.3100 O.3   1 <1>  -0.3630 
 26 C       -8.7230    -6.0800    -0.1060 C.ar  1 <1>   0.0830 
 27 C       -9.9930    -5.2210    -2.6750 C.3   1 <1>   0.0400 
 28 O       -9.5500    -7.0710    -0.5440 O.3   1 <1>  -0.3630 
 29 C       -9.9150    -8.1610     0.2740 C.3   1 <1>   0.0400 
 30 H       -0.3620    -3.8690    -1.1690 H     1 <1>   0.3700 
 31 H       -3.4140    -1.9560    -1.1190 H     1 <1>   0.0800 
 32 H       -2.6500    -0.5830    -1.8330 H     1 <1>   0.0800 
 33 H       -1.9800     0.3250     0.2380 H     1 <1>   0.0800 
 34 H       -2.1350    -1.1880     1.0730 H     1 <1>   0.0800 
 35 H       -3.0560    -4.2510    -2.8200 H     1 <1>   0.1500 
 36 H       -4.5120     0.3400    -0.0140 H     1 <1>   0.0800 
 37 H       -3.9560     0.4550     1.6310 H     1 <1>   0.0800 
 38 H       -3.8170    -6.0910     1.6620 H     1 <1>   0.1500 
 39 H       -0.6310    -4.7410     1.3870 H     1 <1>   0.0800 
 40 H       -1.9320    -5.0090     2.5180 H     1 <1>   0.0800 
 41 H       -1.7000    -3.4280     1.8250 H     1 <1>   0.0800 
 42 H       -5.3260    -6.6750    -0.1590 H     1 <1>   0.1500 
 43 H       -5.7130    -4.9600    -3.1220 H     1 <1>   0.0800 
 44 H       -6.0040    -6.5300    -2.4240 H     1 <1>   0.0800 
 45 H       -4.6930    -6.3140    -3.5580 H     1 <1>   0.0800 
 46 H       -7.0760    -3.3780    -1.2780 H     1 <1>   0.1500 
 47 H       -7.0690    -5.0200     2.6450 H     1 <1>   0.1500 
 48 H       -8.5900    -6.7520     1.9380 H     1 <1>   0.1500 
 49 H      -10.1640    -4.7220    -3.6120 H     1 <1>   0.0800 
 50 H      -10.6310    -4.8080    -1.9140 H     1 <1>   0.0800 
 51 H      -10.1690    -6.2750    -2.7890 H     1 <1>   0.0800 
 52 H      -10.5230    -8.8270    -0.3110 H     1 <1>   0.0800 
 53 H      -10.4790    -7.7940     1.1130 H     1 <1>   0.0800 
 54 H       -9.0240    -8.6690     0.5970 H     1 <1>   0.0800 
@<TRIPOS>BOND
  1   1   2  2   
  2   2   3  am  
  3   2   4  1   
  4   3   5  1   
  5   3  30  1   
  6   4   6  1   
  7   4  31  1   
  8   4  32  1   
  9   5   7  ar  
 10   5   8  ar  
 11   6   9  1   
 12   6  33  1   
 13   6  34  1   
 14   7  10  ar  
 15   7  11  1   
 16   8  12  ar  
 17   8  35  1   
 18   9  13  1   
 19   9  36  1   
 20   9  37  1   
 21  10  14  ar  
 22  10  38  1   
 23  11  39  1   
 24  11  40  1   
 25  11  41  1   
 26  12  14  ar  
 27  12  15  1   
 28  13  16  1   
 29  13  17  2   
 30  14  42  1   
 31  15  43  1   
 32  15  44  1   
 33  15  45  1   
 34  16  18  1   
 35  17  19  1   
 36  18  19  2   
 37  19  20  1   
 38  20  21  ar  
 39  20  22  ar  
 40  21  23  ar  
 41  21  46  1   
 42  22  24  ar  
 43  22  47  1   
 44  23  25  1   
 45  23  26  ar  
 46  24  26  ar  
 47  24  48  1   
 48  25  27  1   
 49  26  28  1   
 50  27  49  1   
 51  27  50  1   
 52  27  51  1   
 53  28  29  1   
 54  29  52  1   
 55  29  53  1   
 56  29  54  1   
@<TRIPOS>SUBSTRUCTURE
  1 ****  19 GROUP 4 **** **** 0

# MOE 2024.06 (io_trps.svl 2023.06)
