@<TRIPOS>MOLECULE
8-Furan-2-ylmethyl-1,6-dimethyl-5,6,7,8-tetrahydro-1H-1,3,4b,8,9-pentaaza-fluore
41 44 1 0 0 
SMALL
USER_CHARGES


@<TRIPOS>ATOM
  1 O        2.3640    -0.0890     2.5030 O.2   1 <1>  -0.5760 
  2 C        3.0880     0.6970     1.9370 C.2   1 <1>   0.6850 
  3 N        4.4350     0.4440     1.7230 N.am  1 <1>  -0.4430 
  4 N        2.5520     1.8750     1.4980 N.am  1 <1>  -0.4960 
  5 C        5.1770     1.4190     1.0760 C.2   1 <1>   0.4190 
  6 C        5.0730    -0.8240     2.1800 C.3   1 <1>   0.0500 
  7 C        3.2700     2.8450     0.8570 C.2   1 <1>   0.6980 
  8 N        6.5000     1.3970     0.7720 N.pl3 1 <1>  -0.7050 
  9 C        4.6620     2.5900     0.6400 C.2   1 <1>   0.2690 
 10 O        2.7090     3.8640     0.5050 O.2   1 <1>  -0.5760 
 11 C        6.8220     2.5320     0.1590 C.cat 1 <1>   1.0680 
 12 N        5.7290     3.2880     0.0520 N.pl3 1 <1>  -0.7680 
 13 N        8.0280     2.9320    -0.3020 N.pl3 1 <1>  -0.5970 
 14 C        5.6760     4.6290    -0.5610 C.3   1 <1>   0.3460 
 15 C        8.1740     4.2990    -0.8860 C.3   1 <1>   0.1590 
 16 C        9.3180     2.1680    -0.2560 C.3   1 <1>   0.3400 
 17 C        6.8610     4.7840    -1.5270 C.3   1 <1>  -0.0900 
 18 C        9.2010     0.7380     0.2500 C.2   1 <1>  -0.0500 
 19 C        6.9980     6.2400    -1.9970 C.3   1 <1>  -0.2480 
 20 O        9.0510     0.5250     1.5440 O.3   1 <1>  -0.2880 
 21 C        9.2190    -0.4340    -0.4200 C.2   1 <1>  -0.1590 
 22 C        8.9860    -0.7790     1.7310 C.2   1 <1>  -0.0200 
 23 C        9.0750    -1.4300     0.5530 C.2   1 <1>  -0.1590 
 24 H        1.5600     2.0310     1.6690 H     1 <1>   0.3630 
 25 H        4.3300    -1.5280     2.5130 H     1 <1>   0.0700 
 26 H        5.7420    -0.6190     2.9980 H     1 <1>   0.0700 
 27 H        5.6250    -1.2700     1.3710 H     1 <1>   0.0700 
 28 H        7.2040     0.6890     1.0090 H     1 <1>   0.4430 
 29 H        5.7270     5.3740     0.2160 H     1 <1>   0.0700 
 30 H        4.7480     4.7560    -1.0950 H     1 <1>   0.0700 
 31 H        8.9450     4.2950    -1.6380 H     1 <1>   0.0700 
 32 H        8.4730     4.9780    -0.1050 H     1 <1>   0.0700 
 33 H       10.0200     2.6960     0.3680 H     1 <1>   0.0700 
 34 H        9.7290     2.1340    -1.2510 H     1 <1>   0.0700 
 35 H        6.6660     4.1810    -2.3980 H     1 <1>   0.0700 
 36 H        7.1990     6.8980    -1.1690 H     1 <1>   0.0700 
 37 H        6.0910     6.5660    -2.4790 H     1 <1>   0.0700 
 38 H        7.8020     6.3320    -2.7070 H     1 <1>   0.0700 
 39 H        9.3270    -0.6180    -1.4770 H     1 <1>   0.1410 
 40 H        8.8840    -1.1620     2.7340 H     1 <1>   0.1410 
 41 H        9.0580    -2.4910     0.3660 H     1 <1>   0.1410 
@<TRIPOS>BOND
  1   1   2  2   
  2   2   3  am  
  3   2   4  am  
  4   3   5  1   
  5   3   6  1   
  6   4   7  am  
  7   4  24  1   
  8   5   8  1   
  9   5   9  2   
 10   6  25  1   
 11   6  26  1   
 12   6  27  1   
 13   7   9  1   
 14   7  10  2   
 15   8  11  ar  
 16   8  28  1   
 17   9  12  1   
 18  11  12  ar  
 19  11  13  ar  
 20  12  14  1   
 21  13  15  1   
 22  13  16  1   
 23  14  17  1   
 24  14  29  1   
 25  14  30  1   
 26  15  17  1   
 27  15  31  1   
 28  15  32  1   
 29  16  18  1   
 30  16  33  1   
 31  16  34  1   
 32  17  19  1   
 33  17  35  1   
 34  18  20  1   
 35  18  21  2   
 36  19  36  1   
 37  19  37  1   
 38  19  38  1   
 39  20  22  1   
 40  21  23  1   
 41  21  39  1   
 42  22  23  2   
 43  22  40  1   
 44  23  41  1   
@<TRIPOS>SUBSTRUCTURE
  1 ****   8 GROUP 4 **** **** 0

# MOE 2024.06 (io_trps.svl 2023.06)
