@<TRIPOS>MOLECULE
4-[2-(4,6-Dimethyl-pyrimidin-2-ylsulfanyl)-butyrylamino]-benzoic acid ethyl este
49 50 1 0 0 
SMALL
USER_CHARGES


@<TRIPOS>ATOM
  1 S       -0.8460    -0.5560    -0.7910 S.3   1 <1>  -0.3320 
  2 C        0.7690    -1.2290    -1.1430 C.ar  1 <1>   0.7220 
  3 C       -1.5630    -1.6530     0.5310 C.3   1 <1>   0.2110 
  4 N        1.4480    -0.5600    -2.0580 N.ar  1 <1>  -0.6200 
  5 N        1.1160    -2.3080    -0.4610 N.ar  1 <1>  -0.6200 
  6 C       -3.0910    -1.6140     0.4410 C.2   1 <1>   0.5690 
  7 C       -1.0160    -1.1500     1.8820 C.3   1 <1>  -0.1600 
  8 C        2.6370    -1.0480    -2.3220 C.ar  1 <1>   0.1660 
  9 C        2.3090    -2.7730    -0.7460 C.ar  1 <1>   0.1660 
 10 O       -3.7120    -2.6120     0.7190 O.2   1 <1>  -0.5700 
 11 N       -3.6870    -0.4430     0.0470 N.am  1 <1>  -0.5470 
 12 C       -1.4520    -2.0270     3.0630 C.3   1 <1>  -0.2400 
 13 C        3.1170    -2.1690    -1.6820 C.ar  1 <1>  -0.1500 
 14 C        3.4590    -0.3210    -3.3650 C.3   1 <1>  -0.0970 
 15 C        2.7600    -4.0090     0.0040 C.3   1 <1>  -0.0970 
 16 C       -5.0280    -0.0630    -0.0480 C.ar  1 <1>   0.1170 
 17 C       -6.0610    -0.7280     0.6060 C.ar  1 <1>  -0.1500 
 18 C       -5.3570     1.0450    -0.8190 C.ar  1 <1>  -0.1500 
 19 C       -7.3690    -0.3000     0.4870 C.ar  1 <1>  -0.1500 
 20 C       -6.6660     1.4710    -0.9360 C.ar  1 <1>  -0.1500 
 21 C       -7.7130     0.8120    -0.2860 C.ar  1 <1>   0.0860 
 22 C       -9.0910     1.2480    -0.3970 C.2   1 <1>   0.6340 
 23 O      -10.0140     0.6970     0.1680 O.2   1 <1>  -0.5700 
 24 O       -9.3520     2.3150    -1.1600 O.3   1 <1>  -0.4300 
 25 C      -10.6650     2.8040    -1.3210 C.3   1 <1>   0.1200 
 26 C      -10.6080     4.0160    -2.2450 C.3   1 <1>  -0.2400 
 27 H       -1.2340    -2.6560     0.3320 H     1 <1>   0.0800 
 28 H       -1.3480    -0.1410     2.0500 H     1 <1>   0.0800 
 29 H        0.0600    -1.1430     1.8430 H     1 <1>   0.0800 
 30 H       -3.0170     0.2460    -0.3020 H     1 <1>   0.3700 
 31 H       -2.5220    -2.0120     3.1800 H     1 <1>   0.0800 
 32 H       -1.0070    -1.6660     3.9740 H     1 <1>   0.0800 
 33 H       -1.1380    -3.0450     2.9110 H     1 <1>   0.0800 
 34 H        4.0920    -2.5580    -1.9070 H     1 <1>   0.1500 
 35 H        2.9280    -0.3140    -4.2990 H     1 <1>   0.0800 
 36 H        4.4110    -0.7960    -3.5090 H     1 <1>   0.0800 
 37 H        3.6200     0.6940    -3.0520 H     1 <1>   0.0800 
 38 H        2.0770    -4.8160    -0.1890 H     1 <1>   0.0800 
 39 H        2.7660    -3.8070     1.0600 H     1 <1>   0.0800 
 40 H        3.7460    -4.3080    -0.2990 H     1 <1>   0.0800 
 41 H       -5.8460    -1.5860     1.2160 H     1 <1>   0.1500 
 42 H       -4.5790     1.5770    -1.3370 H     1 <1>   0.1500 
 43 H       -8.1460    -0.8370     1.0040 H     1 <1>   0.1500 
 44 H       -6.8830     2.3330    -1.5430 H     1 <1>   0.1500 
 45 H      -11.0500     3.0730    -0.3520 H     1 <1>   0.0800 
 46 H      -11.2710     2.0210    -1.7460 H     1 <1>   0.0800 
 47 H       -9.9920     4.7840    -1.8120 H     1 <1>   0.0800 
 48 H      -11.5980     4.4100    -2.3860 H     1 <1>   0.0800 
 49 H      -10.2130     3.7330    -3.2040 H     1 <1>   0.0800 
@<TRIPOS>BOND
  1   1   2  1   
  2   1   3  1   
  3   2   4  ar  
  4   2   5  ar  
  5   3   6  1   
  6   3   7  1   
  7   3  27  1   
  8   4   8  ar  
  9   5   9  ar  
 10   6  10  2   
 11   6  11  am  
 12   7  12  1   
 13   7  28  1   
 14   7  29  1   
 15   8  13  ar  
 16   8  14  1   
 17   9  13  ar  
 18   9  15  1   
 19  11  16  1   
 20  11  30  1   
 21  12  31  1   
 22  12  32  1   
 23  12  33  1   
 24  13  34  1   
 25  14  35  1   
 26  14  36  1   
 27  14  37  1   
 28  15  38  1   
 29  15  39  1   
 30  15  40  1   
 31  16  17  ar  
 32  16  18  ar  
 33  17  19  ar  
 34  17  41  1   
 35  18  20  ar  
 36  18  42  1   
 37  19  21  ar  
 38  19  43  1   
 39  20  21  ar  
 40  20  44  1   
 41  21  22  1   
 42  22  23  2   
 43  22  24  1   
 44  24  25  1   
 45  25  26  1   
 46  25  45  1   
 47  25  46  1   
 48  26  47  1   
 49  26  48  1   
 50  26  49  1   
@<TRIPOS>SUBSTRUCTURE
  1 ****  11 GROUP 4 **** **** 0

# MOE 2024.06 (io_trps.svl 2023.06)
