@<TRIPOS>MOLECULE
4-(2-Methoxy-ethyl)-5-phenethyl-4H-[1,2,4]triazole-3-thiol
35 36 1 0 0 
SMALL
USER_CHARGES


@<TRIPOS>ATOM
  1 S       -0.5750    -0.4010     0.3120 S.3   1 <1>  -0.9360 
  2 C       -2.1170     0.0640     0.5100 C.cat 1 <1>   0.7360 
  3 N       -2.5480     0.9240     1.4050 N.pl3 1 <1>  -0.3930 
  4 N       -3.1500    -0.3800    -0.1760 N.pl3 1 <1>  -0.7640 
  5 N       -3.9070     1.0460     1.3350 N.2   1 <1>  -0.2600 
  6 C       -4.2380     0.2450     0.3820 C.2   1 <1>   0.4850 
  7 C       -3.0550    -1.4400    -1.2040 C.3   1 <1>   0.3540 
  8 C       -5.6510    -0.0140    -0.1160 C.3   1 <1>   0.0080 
  9 C       -3.0660    -2.8340    -0.5630 C.3   1 <1>   0.1200 
 10 C       -6.7210     0.8000     0.6240 C.3   1 <1>  -0.0160 
 11 O       -4.3070    -3.0820     0.0360 O.3   1 <1>  -0.5600 
 12 C       -8.0920     0.5040     0.0410 C.ar  1 <1>  -0.1440 
 13 C       -4.3380    -4.2520     0.7880 C.3   1 <1>   0.0400 
 14 C       -8.6270     1.3220    -0.9420 C.ar  1 <1>  -0.1500 
 15 C       -8.8140    -0.5930     0.4820 C.ar  1 <1>  -0.1500 
 16 C       -9.8720     1.0440    -1.4800 C.ar  1 <1>  -0.1500 
 17 C      -10.0590    -0.8720    -0.0560 C.ar  1 <1>  -0.1500 
 18 C      -10.5880    -0.0530    -1.0370 C.ar  1 <1>  -0.1500 
 19 H       -1.9060     1.3820     2.0500 H     1 <1>   0.4500 
 20 H       -2.1350    -1.3160    -1.7510 H     1 <1>   0.0800 
 21 H       -3.8660    -1.3560    -1.9040 H     1 <1>   0.0800 
 22 H       -5.8710    -1.0590    -0.0020 H     1 <1>   0.0800 
 23 H       -5.6920     0.2220    -1.1630 H     1 <1>   0.0800 
 24 H       -2.2890    -2.8930     0.1810 H     1 <1>   0.0800 
 25 H       -2.8970    -3.5850    -1.3150 H     1 <1>   0.0800 
 26 H       -6.5090     1.8520     0.5360 H     1 <1>   0.0800 
 27 H       -6.7130     0.5490     1.6710 H     1 <1>   0.0800 
 28 H       -5.3280    -4.3640     1.1940 H     1 <1>   0.0800 
 29 H       -3.6240    -4.1780     1.5900 H     1 <1>   0.0800 
 30 H       -4.1090    -5.0910     0.1530 H     1 <1>   0.0800 
 31 H       -8.0810     2.1800    -1.2950 H     1 <1>   0.1500 
 32 H       -8.4130    -1.2380     1.2440 H     1 <1>   0.1500 
 33 H      -10.2840     1.6820    -2.2420 H     1 <1>   0.1500 
 34 H      -10.6160    -1.7250     0.2900 H     1 <1>   0.1500 
 35 H      -11.5560    -0.2700    -1.4550 H     1 <1>   0.1500 
@<TRIPOS>BOND
  1   1   2  1   
  2   2   3  ar  
  3   2   4  ar  
  4   3   5  1   
  5   3  19  1   
  6   4   6  1   
  7   4   7  1   
  8   5   6  2   
  9   6   8  1   
 10   7   9  1   
 11   7  20  1   
 12   7  21  1   
 13   8  10  1   
 14   8  22  1   
 15   8  23  1   
 16   9  11  1   
 17   9  24  1   
 18   9  25  1   
 19  10  12  1   
 20  10  26  1   
 21  10  27  1   
 22  11  13  1   
 23  12  14  ar  
 24  12  15  ar  
 25  13  28  1   
 26  13  29  1   
 27  13  30  1   
 28  14  16  ar  
 29  14  31  1   
 30  15  17  ar  
 31  15  32  1   
 32  16  18  ar  
 33  16  33  1   
 34  17  18  ar  
 35  17  34  1   
 36  18  35  1   
@<TRIPOS>SUBSTRUCTURE
  1 ****   8 GROUP 4 **** **** 0

# MOE 2024.06 (io_trps.svl 2023.06)
