@<TRIPOS>MOLECULE
1-Cyclohexylcarbamoylmethyl-1H-indole-6-carboxylic acid methyl ester
45 47 1 0 0 
SMALL
USER_CHARGES


@<TRIPOS>ATOM
  1 O       -0.5400     1.1220     2.2980 O.2   1 <1>  -0.5700 
  2 C       -1.3130     1.4170     1.4080 C.2   1 <1>   0.6340 
  3 O       -2.3870     0.6440     1.2120 O.3   1 <1>  -0.4300 
  4 C       -1.1230     2.5630     0.5410 C.ar  1 <1>   0.0860 
  5 C       -2.6430    -0.4930     2.0130 C.3   1 <1>   0.0400 
  6 C       -0.0700     3.4440     0.7460 C.ar  1 <1>  -0.1500 
  7 C       -1.9880     2.8230    -0.5470 C.ar  1 <1>  -0.1500 
  8 C        0.1330     4.5310    -0.1080 C.ar  1 <1>  -0.1520 
  9 C       -1.8020     3.8930    -1.3880 C.ar  1 <1>  -0.1500 
 10 N        1.1120     5.5010    -0.1220 N.pl3 1 <1>   0.0480 
 11 C       -0.7270     4.7590    -1.1750 C.ar  1 <1>   0.0000 
 12 C        0.8610     6.3230    -1.1830 C.2   1 <1>  -0.3020 
 13 C        2.2630     5.6090     0.8070 C.3   1 <1>   0.1570 
 14 C       -0.2470     5.9030    -1.8390 C.2   1 <1>  -0.1500 
 15 C        3.2310     4.4400     0.6990 C.2   1 <1>   0.5690 
 16 O        4.1990     4.4500     1.4190 O.2   1 <1>  -0.5700 
 17 N        2.9910     3.4170    -0.1640 N.am  1 <1>  -0.7300 
 18 C        3.7230     2.1450    -0.2220 C.3   1 <1>   0.2200 
 19 C        4.1930     1.9120    -1.6610 C.3   1 <1>  -0.1600 
 20 C        2.7840     1.0270     0.2460 C.3   1 <1>  -0.1600 
 21 C        4.8570     0.5350    -1.8110 C.3   1 <1>  -0.1600 
 22 C        3.4440    -0.3510     0.0980 C.3   1 <1>  -0.1600 
 23 C        3.9190    -0.5870    -1.3420 C.3   1 <1>  -0.1600 
 24 H       -1.8220    -1.1820     1.9110 H     1 <1>   0.0800 
 25 H       -3.5560    -0.9500     1.6760 H     1 <1>   0.0800 
 26 H       -2.7400    -0.1810     3.0380 H     1 <1>   0.0800 
 27 H        0.6040     3.2820     1.5700 H     1 <1>   0.1500 
 28 H       -2.8160     2.1570    -0.7190 H     1 <1>   0.1500 
 29 H       -2.4670     4.0800    -2.2130 H     1 <1>   0.1500 
 30 H        1.4880     7.1670    -1.4150 H     1 <1>   0.1500 
 31 H        1.8890     5.6570     1.8110 H     1 <1>   0.0800 
 32 H        2.7960     6.5170     0.5990 H     1 <1>   0.0800 
 33 H       -0.7070     6.3350    -2.7100 H     1 <1>   0.1500 
 34 H        2.1400     3.4440    -0.7330 H     1 <1>   0.3700 
 35 H        4.5800     2.1870     0.4310 H     1 <1>   0.0800 
 36 H        4.8980     2.6780    -1.9320 H     1 <1>   0.0800 
 37 H        3.3510     1.9690    -2.3290 H     1 <1>   0.0800 
 38 H        1.8810     1.0450    -0.3380 H     1 <1>   0.0800 
 39 H        2.5240     1.1860     1.2780 H     1 <1>   0.0800 
 40 H        5.7610     0.5100    -1.2270 H     1 <1>   0.0800 
 41 H        5.1250     0.3740    -2.8410 H     1 <1>   0.0800 
 42 H        2.7430    -1.1180     0.3780 H     1 <1>   0.0800 
 43 H        4.2860    -0.4150     0.7660 H     1 <1>   0.0800 
 44 H        4.4300    -1.5320    -1.4030 H     1 <1>   0.0800 
 45 H        3.0640    -0.6330    -1.9960 H     1 <1>   0.0800 
@<TRIPOS>BOND
  1   1   2  2   
  2   2   3  1   
  3   2   4  1   
  4   3   5  1   
  5   4   6  ar  
  6   4   7  ar  
  7   5  24  1   
  8   5  25  1   
  9   5  26  1   
 10   6   8  ar  
 11   6  27  1   
 12   7   9  ar  
 13   7  28  1   
 14   8  10  1   
 15   8  11  ar  
 16   9  11  ar  
 17   9  29  1   
 18  10  12  1   
 19  10  13  1   
 20  11  14  1   
 21  12  14  2   
 22  12  30  1   
 23  13  15  1   
 24  13  31  1   
 25  13  32  1   
 26  14  33  1   
 27  15  16  2   
 28  15  17  am  
 29  17  18  1   
 30  17  34  1   
 31  18  19  1   
 32  18  20  1   
 33  18  35  1   
 34  19  21  1   
 35  19  36  1   
 36  19  37  1   
 37  20  22  1   
 38  20  38  1   
 39  20  39  1   
 40  21  23  1   
 41  21  40  1   
 42  21  41  1   
 43  22  23  1   
 44  22  42  1   
 45  22  43  1   
 46  23  44  1   
 47  23  45  1   
@<TRIPOS>SUBSTRUCTURE
  1 ****   6 GROUP 4 **** **** 0

# MOE 2024.06 (io_trps.svl 2023.06)
