@<TRIPOS>MOLECULE
N-[2-(4-Acetyl-piperazin-1-yl)-phenyl]-2-(4-chloro-phenoxy)-acetamide
49 51 1 0 0 
SMALL
USER_CHARGES


@<TRIPOS>ATOM
  1 CL       0.2780     1.0070    -1.1000 Cl    1 <1>  -0.1770 
  2 C        2.0130     1.0910    -0.9240 C.ar  1 <1>   0.1770 
  3 C        2.6010     2.2930    -0.5760 C.ar  1 <1>  -0.1500 
  4 C        2.7710    -0.0460    -1.1360 C.ar  1 <1>  -0.1500 
  5 C        3.9770     2.3540    -0.4390 C.ar  1 <1>  -0.1500 
  6 C        4.1480     0.0170    -0.9970 C.ar  1 <1>  -0.1500 
  7 C        4.7550     1.2230    -0.6470 C.ar  1 <1>   0.0830 
  8 O        6.0920     1.3730    -0.4900 O.3   1 <1>  -0.3630 
  9 C        6.9860     0.2720    -0.6130 C.3   1 <1>   0.1810 
 10 C        8.4270     0.6990    -0.3600 C.2   1 <1>   0.5690 
 11 O        9.2850    -0.1520    -0.3760 O.2   1 <1>  -0.5700 
 12 N        8.6720     2.0190    -0.1300 N.am  1 <1>  -0.5470 
 13 C        9.8110     2.7890     0.1450 C.ar  1 <1>   0.1170 
 14 C        9.6030     4.1630     0.3350 C.ar  1 <1>   0.1000 
 15 C       11.0950     2.2690     0.2350 C.ar  1 <1>  -0.1500 
 16 N        8.3030     4.6940     0.2390 N.pl3 1 <1>  -0.8380 
 17 C       10.6890     4.9790     0.6170 C.ar  1 <1>  -0.1500 
 18 C       12.1690     3.0970     0.5140 C.ar  1 <1>  -0.1500 
 19 C        7.9710     5.5330    -0.9550 C.3   1 <1>   0.2090 
 20 C        7.6000     5.0620     1.5100 C.3   1 <1>   0.2090 
 21 C       11.9660     4.4520     0.7060 C.ar  1 <1>  -0.1500 
 22 C        7.9660     7.0410    -0.6420 C.3   1 <1>   0.1400 
 23 C        7.6140     6.5770     1.7740 C.3   1 <1>   0.1400 
 24 N        7.1470     7.3360     0.5730 N.am  1 <1>  -0.6600 
 25 C        6.0030     8.0870     0.6070 C.2   1 <1>   0.5690 
 26 O        5.3220     8.1730     1.6000 O.2   1 <1>  -0.5700 
 27 C        5.5400     8.8380    -0.6190 C.3   1 <1>  -0.1790 
 28 H        1.9890     3.1620    -0.4160 H     1 <1>   0.1500 
 29 H        2.2840    -0.9660    -1.4060 H     1 <1>   0.1500 
 30 H        4.4540     3.2790    -0.1680 H     1 <1>   0.1500 
 31 H        4.7220    -0.8740    -1.1660 H     1 <1>   0.1500 
 32 H        6.9060    -0.1230    -1.6080 H     1 <1>   0.0800 
 33 H        6.7080    -0.4750     0.1060 H     1 <1>   0.0800 
 34 H        7.8410     2.6230    -0.1420 H     1 <1>   0.3700 
 35 H       11.2610     1.2180     0.0890 H     1 <1>   0.1500 
 36 H       10.5340     6.0300     0.7670 H     1 <1>   0.1500 
 37 H       13.1600     2.6830     0.5820 H     1 <1>   0.1500 
 38 H        6.9990     5.2470    -1.3160 H     1 <1>   0.0800 
 39 H        8.6820     5.3340    -1.7390 H     1 <1>   0.0800 
 40 H        8.0640     4.5530     2.3370 H     1 <1>   0.0800 
 41 H        6.5790     4.7290     1.4520 H     1 <1>   0.0800 
 42 H       12.8010     5.0950     0.9240 H     1 <1>   0.1500 
 43 H        7.5970     7.5730    -1.4990 H     1 <1>   0.0800 
 44 H        8.9760     7.3650    -0.4690 H     1 <1>   0.0800 
 45 H        8.6140     6.8840     2.0190 H     1 <1>   0.0800 
 46 H        6.9920     6.7900     2.6250 H     1 <1>   0.0800 
 47 H        5.2800     8.1450    -1.3950 H     1 <1>   0.0800 
 48 H        6.3150     9.4980    -0.9580 H     1 <1>   0.0800 
 49 H        4.6720     9.4240    -0.3760 H     1 <1>   0.0800 
@<TRIPOS>BOND
  1   1   2  1   
  2   2   3  ar  
  3   2   4  ar  
  4   3   5  ar  
  5   3  28  1   
  6   4   6  ar  
  7   4  29  1   
  8   5   7  ar  
  9   5  30  1   
 10   6   7  ar  
 11   6  31  1   
 12   7   8  1   
 13   8   9  1   
 14   9  10  1   
 15   9  32  1   
 16   9  33  1   
 17  10  11  2   
 18  10  12  am  
 19  12  13  1   
 20  12  34  1   
 21  13  14  ar  
 22  13  15  ar  
 23  14  16  1   
 24  14  17  ar  
 25  15  18  ar  
 26  15  35  1   
 27  16  19  1   
 28  16  20  1   
 29  17  21  ar  
 30  17  36  1   
 31  18  21  ar  
 32  18  37  1   
 33  19  22  1   
 34  19  38  1   
 35  19  39  1   
 36  20  23  1   
 37  20  40  1   
 38  20  41  1   
 39  21  42  1   
 40  22  24  1   
 41  22  43  1   
 42  22  44  1   
 43  23  24  1   
 44  23  45  1   
 45  23  46  1   
 46  24  25  am  
 47  25  26  2   
 48  25  27  1   
 49  27  47  1   
 50  27  48  1   
 51  27  49  1   
@<TRIPOS>SUBSTRUCTURE
  1 ****  16 GROUP 4 **** **** 0

# MOE 2024.06 (io_trps.svl 2023.06)
