@<TRIPOS>MOLECULE
N-[2-(4-Isobutyryl-piperazin-1-yl)-phenyl]-butyramide
50 51 1 0 0 
SMALL
USER_CHARGES


@<TRIPOS>ATOM
  1 O       -1.9070     1.0240    -1.7670 O.2   1 <1>  -0.5700 
  2 C       -1.7330     1.3050    -0.6030 C.2   1 <1>   0.5690 
  3 N       -1.5010     2.6060    -0.2220 N.am  1 <1>  -0.6600 
  4 C       -1.7940     0.1680     0.4330 C.3   1 <1>  -0.0190 
  5 C       -1.5210     3.1400     1.1760 C.3   1 <1>   0.1400 
  6 C       -1.3650     3.6930    -1.2410 C.3   1 <1>   0.1400 
  7 C       -1.3200    -1.1830    -0.1360 C.3   1 <1>  -0.2400 
  8 C       -3.2140     0.0090     1.0020 C.3   1 <1>  -0.2400 
  9 C       -2.6330     4.1910     1.3620 C.3   1 <1>   0.2090 
 10 C       -2.4970     4.7250    -1.1050 C.3   1 <1>   0.2090 
 11 N       -2.6400     5.2420     0.2950 N.pl3 1 <1>  -0.8380 
 12 C       -2.0360     6.4810     0.5870 C.ar  1 <1>   0.1000 
 13 C       -2.8250     7.6350     0.6970 C.ar  1 <1>   0.1170 
 14 C       -0.6630     6.5830     0.7670 C.ar  1 <1>  -0.1500 
 15 N       -4.2050     7.4700     0.5010 N.am  1 <1>  -0.5470 
 16 C       -2.2240     8.8520     0.9890 C.ar  1 <1>  -0.1500 
 17 C       -0.0720     7.8010     1.0560 C.ar  1 <1>  -0.1500 
 18 C       -5.2590     8.3290     0.4210 C.2   1 <1>   0.5690 
 19 C       -0.8540     8.9360     1.1680 C.ar  1 <1>  -0.1500 
 20 O       -5.1700     9.5250     0.5420 O.2   1 <1>  -0.5700 
 21 C       -6.6270     7.7260     0.1600 C.3   1 <1>  -0.0990 
 22 C       -6.7610     7.1780    -1.2700 C.3   1 <1>  -0.1600 
 23 C       -8.1510     6.5820    -1.5110 C.3   1 <1>  -0.2400 
 24 H       -1.1220     0.4070     1.2350 H     1 <1>   0.0800 
 25 H       -0.5690     3.5910     1.3900 H     1 <1>   0.0800 
 26 H       -1.6740     2.3570     1.8930 H     1 <1>   0.0800 
 27 H       -1.3790     3.2890    -2.2380 H     1 <1>   0.0800 
 28 H       -0.4190     4.1860    -1.1080 H     1 <1>   0.0800 
 29 H       -1.9700    -1.5060    -0.9300 H     1 <1>   0.0800 
 30 H       -1.3100    -1.9360     0.6310 H     1 <1>   0.0800 
 31 H       -0.3250    -1.0850    -0.5340 H     1 <1>   0.0800 
 32 H       -3.8960    -0.2650     0.2150 H     1 <1>   0.0800 
 33 H       -3.5540     0.9310     1.4370 H     1 <1>   0.0800 
 34 H       -3.2350    -0.7560     1.7570 H     1 <1>   0.0800 
 35 H       -2.5180     4.6620     2.3230 H     1 <1>   0.0800 
 36 H       -3.5850     3.6920     1.3570 H     1 <1>   0.0800 
 37 H       -3.4220     4.2650    -1.4050 H     1 <1>   0.0800 
 38 H       -2.3080     5.5470    -1.7740 H     1 <1>   0.0800 
 39 H       -0.0500     5.7080     0.6770 H     1 <1>   0.1500 
 40 H       -4.4030     6.4800     0.3390 H     1 <1>   0.3700 
 41 H       -2.8200     9.7420     1.0790 H     1 <1>   0.1500 
 42 H        0.9930     7.8660     1.1930 H     1 <1>   0.1500 
 43 H       -0.4010     9.8860     1.3930 H     1 <1>   0.1500 
 44 H       -7.3700     8.4870     0.3230 H     1 <1>   0.0800 
 45 H       -6.7990     6.9410     0.8740 H     1 <1>   0.0800 
 46 H       -6.0160     6.4200    -1.4430 H     1 <1>   0.0800 
 47 H       -6.5890     7.9770    -1.9720 H     1 <1>   0.0800 
 48 H       -8.3370     5.7670    -0.8330 H     1 <1>   0.0800 
 49 H       -8.2230     6.2110    -2.5180 H     1 <1>   0.0800 
 50 H       -8.9110     7.3310    -1.3690 H     1 <1>   0.0800 
@<TRIPOS>BOND
  1   1   2  2   
  2   2   3  am  
  3   2   4  1   
  4   3   5  1   
  5   3   6  1   
  6   4   7  1   
  7   4   8  1   
  8   4  24  1   
  9   5   9  1   
 10   5  25  1   
 11   5  26  1   
 12   6  10  1   
 13   6  27  1   
 14   6  28  1   
 15   7  29  1   
 16   7  30  1   
 17   7  31  1   
 18   8  32  1   
 19   8  33  1   
 20   8  34  1   
 21   9  11  1   
 22   9  35  1   
 23   9  36  1   
 24  10  11  1   
 25  10  37  1   
 26  10  38  1   
 27  11  12  1   
 28  12  13  ar  
 29  12  14  ar  
 30  13  15  1   
 31  13  16  ar  
 32  14  17  ar  
 33  14  39  1   
 34  15  18  am  
 35  15  40  1   
 36  16  19  ar  
 37  16  41  1   
 38  17  19  ar  
 39  17  42  1   
 40  18  20  2   
 41  18  21  1   
 42  19  43  1   
 43  21  22  1   
 44  21  44  1   
 45  21  45  1   
 46  22  23  1   
 47  22  46  1   
 48  22  47  1   
 49  23  48  1   
 50  23  49  1   
 51  23  50  1   
@<TRIPOS>SUBSTRUCTURE
  1 ****  11 GROUP 4 **** **** 0

# MOE 2024.06 (io_trps.svl 2023.06)
