@<TRIPOS>MOLECULE
Furan-2-carboxylic acid [1-(azepane-1-carbonyl)-2-(3,4-dimethoxy-phenyl)-vinyl]-
55 57 1 0 0 
SMALL
USER_CHARGES


@<TRIPOS>ATOM
  1 O        1.9200     0.7890    -0.6220 O.2   1 <1>  -0.5700 
  2 C        2.3720     0.8180     0.5080 C.2   1 <1>   0.7150 
  3 N        1.8090     1.6500     1.4400 N.am  1 <1>  -0.5390 
  4 C        3.5150     0.0200     0.8760 C.2   1 <1>   0.0550 
  5 C        0.7220     2.5190     1.2530 C.2   1 <1>   0.1230 
  6 O        4.0510     0.1090     2.0920 O.3   1 <1>  -0.2800 
  7 C        4.2280    -0.8930     0.1580 C.2   1 <1>  -0.1500 
  8 C        1.0270     3.9320     1.3980 C.2   1 <1>   0.6160 
  9 C       -0.5270     2.0690     0.9440 C.2   1 <1>  -0.1780 
 10 C        5.0720    -0.7140     2.1660 C.2   1 <1>  -0.0100 
 11 C        5.2370    -1.3680     0.9960 C.2   1 <1>  -0.1500 
 12 O        1.5130     4.3190     2.4480 O.2   1 <1>  -0.5700 
 13 N        0.8080     4.8350     0.3750 N.am  1 <1>  -0.6600 
 14 C       -1.0310     0.7310     0.8060 C.ar  1 <1>   0.0280 
 15 C        0.9320     6.2980     0.6230 C.3   1 <1>   0.1400 
 16 C        0.5300     4.3800    -1.0210 C.3   1 <1>   0.1400 
 17 C       -2.0070     0.4550    -0.1510 C.ar  1 <1>  -0.1500 
 18 C       -0.6040    -0.3260     1.6120 C.ar  1 <1>  -0.1500 
 19 C        2.3840     6.7510     0.4320 C.3   1 <1>  -0.1600 
 20 C        1.1830     5.2410    -2.1110 C.3   1 <1>  -0.1600 
 21 C       -2.5280    -0.8150    -0.3150 C.ar  1 <1>   0.0830 
 22 C       -1.1000    -1.6060     1.4460 C.ar  1 <1>  -0.1500 
 23 C        2.8350     6.8650    -1.0320 C.3   1 <1>  -0.1600 
 24 C        2.6600     5.5800    -1.8540 C.3   1 <1>  -0.1600 
 25 O       -3.5010    -0.9760    -1.2460 O.3   1 <1>  -0.3620 
 26 C       -2.0480    -1.8690     0.4720 C.ar  1 <1>   0.0830 
 27 C       -4.7760    -1.3390    -0.7610 C.3   1 <1>   0.0400 
 28 O       -2.4610    -3.1500     0.3280 O.3   1 <1>  -0.3630 
 29 C       -2.1470    -3.7790    -0.8950 C.3   1 <1>   0.0400 
 30 H        2.4270     1.8760     2.2230 H     1 <1>   0.3700 
 31 H        4.0550    -1.1970    -0.8600 H     1 <1>   0.1500 
 32 H       -1.2810     2.8150     0.7680 H     1 <1>   0.1500 
 33 H        5.6310    -0.7760     3.0840 H     1 <1>   0.1500 
 34 H        5.9780    -2.1040     0.7350 H     1 <1>   0.1500 
 35 H        0.2720     6.8460    -0.0260 H     1 <1>   0.0800 
 36 H        0.6350     6.5040     1.6380 H     1 <1>   0.0800 
 37 H        0.8960     3.3740    -1.1440 H     1 <1>   0.0800 
 38 H       -0.5340     4.3610    -1.1770 H     1 <1>   0.0800 
 39 H       -2.3700     1.2440    -0.7820 H     1 <1>   0.1500 
 40 H        0.1230    -0.1440     2.3810 H     1 <1>   0.1500 
 41 H        2.4920     7.7190     0.8880 H     1 <1>   0.0800 
 42 H        3.0350     6.0800     0.9650 H     1 <1>   0.0800 
 43 H        1.1200     4.6850    -3.0300 H     1 <1>   0.0800 
 44 H        0.6110     6.1400    -2.2600 H     1 <1>   0.0800 
 45 H       -0.7510    -2.4110     2.0670 H     1 <1>   0.1500 
 46 H        2.2990     7.6670    -1.5080 H     1 <1>   0.0800 
 47 H        3.8780     7.1340    -1.0390 H     1 <1>   0.0800 
 48 H        3.1560     4.7550    -1.3700 H     1 <1>   0.0800 
 49 H        3.1410     5.7310    -2.8050 H     1 <1>   0.0800 
 50 H       -5.4670    -1.3160    -1.5840 H     1 <1>   0.0800 
 51 H       -5.0750    -0.6320    -0.0080 H     1 <1>   0.0800 
 52 H       -4.7330    -2.3300    -0.3480 H     1 <1>   0.0800 
 53 H       -2.4160    -4.8160    -0.8190 H     1 <1>   0.0800 
 54 H       -1.0900    -3.6830    -1.0740 H     1 <1>   0.0800 
 55 H       -2.7020    -3.3130    -1.6890 H     1 <1>   0.0800 
@<TRIPOS>BOND
  1   1   2  2   
  2   2   3  am  
  3   2   4  1   
  4   3   5  1   
  5   3  30  1   
  6   4   6  1   
  7   4   7  2   
  8   5   8  1   
  9   5   9  2   
 10   6  10  1   
 11   7  11  1   
 12   7  31  1   
 13   8  12  2   
 14   8  13  am  
 15   9  14  1   
 16   9  32  1   
 17  10  11  2   
 18  10  33  1   
 19  11  34  1   
 20  13  15  1   
 21  13  16  1   
 22  14  17  ar  
 23  14  18  ar  
 24  15  19  1   
 25  15  35  1   
 26  15  36  1   
 27  16  20  1   
 28  16  37  1   
 29  16  38  1   
 30  17  21  ar  
 31  17  39  1   
 32  18  22  ar  
 33  18  40  1   
 34  19  23  1   
 35  19  41  1   
 36  19  42  1   
 37  20  24  1   
 38  20  43  1   
 39  20  44  1   
 40  21  25  1   
 41  21  26  ar  
 42  22  26  ar  
 43  22  45  1   
 44  23  24  1   
 45  23  46  1   
 46  23  47  1   
 47  24  48  1   
 48  24  49  1   
 49  25  27  1   
 50  26  28  1   
 51  27  50  1   
 52  27  51  1   
 53  27  52  1   
 54  28  29  1   
 55  29  53  1   
 56  29  54  1   
 57  29  55  1   
@<TRIPOS>SUBSTRUCTURE
  1 ****   5 GROUP 4 **** **** 0

# MOE 2024.06 (io_trps.svl 2023.06)
