@<TRIPOS>MOLECULE
2-Piperidin-1-yl-pyrimidine-5-carbaldehyde
27 28 1 0 0 
SMALL
USER_CHARGES


@<TRIPOS>ATOM
  1 O       -0.5160    -0.3510    -0.9320 O.2   1 <1>  -0.5700 
  2 C       -1.2060    -1.3300    -0.8040 C.2   1 <1>   0.4240 
  3 C       -2.5940    -1.3090    -0.4580 C.ar  1 <1>   0.0860 
  4 C       -3.2890    -0.1340    -0.2360 C.ar  1 <1>   0.1600 
  5 C       -3.3440    -2.4620    -0.3200 C.ar  1 <1>   0.1600 
  6 N       -4.5590    -0.1010     0.0800 N.ar  1 <1>  -0.6200 
  7 N       -4.6130    -2.4610    -0.0050 N.ar  1 <1>  -0.6200 
  8 C       -5.1920    -1.2720     0.1860 C.ar  1 <1>   0.7200 
  9 N       -6.5260    -1.2540     0.5160 N.pl3 1 <1>  -0.8380 
 10 C       -7.3400    -2.4890     0.7150 C.3   1 <1>   0.2090 
 11 C       -7.3030     0.0050     0.7130 C.3   1 <1>   0.2090 
 12 C       -8.5220    -2.4860    -0.2590 C.3   1 <1>  -0.1600 
 13 C       -8.4860     0.0330    -0.2610 C.3   1 <1>  -0.1600 
 14 C       -9.3700    -1.2140    -0.1220 C.3   1 <1>  -0.1600 
 15 H       -0.7510    -2.2910    -0.9590 H     1 <1>   0.0600 
 16 H       -2.7660     0.8040    -0.3260 H     1 <1>   0.1500 
 17 H       -2.8750    -3.4180    -0.4760 H     1 <1>   0.1500 
 18 H       -7.7030    -2.5050     1.7280 H     1 <1>   0.0800 
 19 H       -6.7590    -3.3810     0.5630 H     1 <1>   0.0800 
 20 H       -6.6970     0.8800     0.5550 H     1 <1>   0.0800 
 21 H       -7.6640     0.0360     1.7260 H     1 <1>   0.0800 
 22 H       -9.1340    -3.3510    -0.0780 H     1 <1>   0.0800 
 23 H       -8.1370    -2.5600    -1.2620 H     1 <1>   0.0800 
 24 H       -8.0990     0.0950    -1.2630 H     1 <1>   0.0800 
 25 H       -9.0720     0.9160    -0.0800 H     1 <1>   0.0800 
 26 H       -9.8490    -1.2060     0.8430 H     1 <1>   0.0800 
 27 H      -10.1380    -1.2030    -0.8760 H     1 <1>   0.0800 
@<TRIPOS>BOND
  1   1   2  2   
  2   2   3  1   
  3   2  15  1   
  4   3   4  ar  
  5   3   5  ar  
  6   4   6  ar  
  7   4  16  1   
  8   5   7  ar  
  9   5  17  1   
 10   6   8  ar  
 11   7   8  ar  
 12   8   9  1   
 13   9  10  1   
 14   9  11  1   
 15  10  12  1   
 16  10  18  1   
 17  10  19  1   
 18  11  13  1   
 19  11  20  1   
 20  11  21  1   
 21  12  14  1   
 22  12  22  1   
 23  12  23  1   
 24  13  14  1   
 25  13  24  1   
 26  13  25  1   
 27  14  26  1   
 28  14  27  1   
@<TRIPOS>SUBSTRUCTURE
  1 ****   8 GROUP 4 **** **** 0

# MOE 2024.06 (io_trps.svl 2023.06)
