@<TRIPOS>MOLECULE
[2-Methyl-4-(pyrrolidine-1-sulfonyl)-phenoxy]-acetic acid methyl ester
40 41 1 0 0 
SMALL
USER_CHARGES


@<TRIPOS>ATOM
  1 S        0.2090    -0.4250    -1.0420 S.o2  1 <1>   1.4470 
  2 O       -0.4730     0.1580    -2.1770 O.2   1 <1>  -0.6500 
  3 O        0.1100    -1.8530    -0.8170 O.2   1 <1>  -0.6500 
  4 N       -0.4180     0.3330     0.3370 N.am  1 <1>  -0.8490 
  5 C        1.9460     0.0970    -1.0380 C.ar  1 <1>  -0.0090 
  6 C       -1.8650     0.2650     0.4080 C.3   1 <1>   0.1960 
  7 C        0.0600    -0.2090     1.5980 C.3   1 <1>   0.1960 
  8 C        2.9810    -0.8290    -1.0970 C.ar  1 <1>  -0.1500 
  9 C        2.2860     1.4420    -0.9720 C.ar  1 <1>  -0.1500 
 10 C       -2.1960     0.6220     1.8540 C.3   1 <1>  -0.1600 
 11 C       -0.9090     0.3460     2.6330 C.3   1 <1>  -0.1600 
 12 C        4.3100    -0.4390    -1.0870 C.ar  1 <1>  -0.1430 
 13 C        3.6070     1.8530    -0.9620 C.ar  1 <1>  -0.1500 
 14 C        4.6320     0.9130    -1.0200 C.ar  1 <1>   0.0830 
 15 C        5.4060    -1.4940    -1.1510 C.3   1 <1>  -0.0970 
 16 O        5.9500     1.2450    -1.0180 O.3   1 <1>  -0.3630 
 17 C        6.4110     2.5800    -0.8660 C.3   1 <1>   0.1810 
 18 C        6.2250     3.0970     0.5540 C.2   1 <1>   0.6590 
 19 O        5.4730     4.0080     0.7980 O.2   1 <1>  -0.5700 
 20 O        6.9550     2.5140     1.5000 O.3   1 <1>  -0.4300 
 21 C        6.8640     2.9030     2.8540 C.3   1 <1>   0.0400 
 22 H       -2.1970    -0.7390     0.1930 H     1 <1>   0.0800 
 23 H       -2.3170     0.9490    -0.2920 H     1 <1>   0.0800 
 24 H        1.0750     0.0940     1.7930 H     1 <1>   0.0800 
 25 H       -0.0010    -1.2860     1.5920 H     1 <1>   0.0800 
 26 H        2.7330    -1.8760    -1.1510 H     1 <1>   0.1500 
 27 H        1.4990     2.1770    -0.9260 H     1 <1>   0.1500 
 28 H       -3.0190     0.0290     2.2100 H     1 <1>   0.0800 
 29 H       -2.4580     1.6630     1.9200 H     1 <1>   0.0800 
 30 H       -0.5160     1.2630     3.0360 H     1 <1>   0.0800 
 31 H       -1.0600    -0.3550     3.4340 H     1 <1>   0.0800 
 32 H        3.8050     2.9070    -0.9100 H     1 <1>   0.1500 
 33 H        4.9930    -2.4850    -1.1870 H     1 <1>   0.0800 
 34 H        6.0370    -1.4160    -0.2830 H     1 <1>   0.0800 
 35 H        6.0080    -1.3410    -2.0290 H     1 <1>   0.0800 
 36 H        5.8990     3.2070    -1.5720 H     1 <1>   0.0800 
 37 H        7.4580     2.5830    -1.1010 H     1 <1>   0.0800 
 38 H        7.5400     2.2960     3.4300 H     1 <1>   0.0800 
 39 H        5.8520     2.7530     3.1910 H     1 <1>   0.0800 
 40 H        7.1330     3.9410     2.9380 H     1 <1>   0.0800 
@<TRIPOS>BOND
  1   1   2  2   
  2   1   3  2   
  3   1   4  am  
  4   1   5  1   
  5   4   6  1   
  6   4   7  1   
  7   5   8  ar  
  8   5   9  ar  
  9   6  10  1   
 10   6  22  1   
 11   6  23  1   
 12   7  11  1   
 13   7  24  1   
 14   7  25  1   
 15   8  12  ar  
 16   8  26  1   
 17   9  13  ar  
 18   9  27  1   
 19  10  11  1   
 20  10  28  1   
 21  10  29  1   
 22  11  30  1   
 23  11  31  1   
 24  12  14  ar  
 25  12  15  1   
 26  13  14  ar  
 27  13  32  1   
 28  14  16  1   
 29  15  33  1   
 30  15  34  1   
 31  15  35  1   
 32  16  17  1   
 33  17  18  1   
 34  17  36  1   
 35  17  37  1   
 36  18  19  2   
 37  18  20  1   
 38  20  21  1   
 39  21  38  1   
 40  21  39  1   
 41  21  40  1   
@<TRIPOS>SUBSTRUCTURE
  1 ****   9 GROUP 4 **** **** 0

# MOE 2024.06 (io_trps.svl 2023.06)
