@<TRIPOS>MOLECULE
1-(4-Acetyl-5-methyl-thiazol-2-yl)-3-(3,5-dimethyl-benzyl)-pyrrolidine-2,5-dione
45 47 1 0 0 
SMALL
USER_CHARGES


@<TRIPOS>ATOM
  1 S       -0.0890    -0.1380    -0.8940 S.3   1 <1>  -0.0800 
  2 C        0.1730     1.5370    -0.4650 C.2   1 <1>   0.4420 
  3 C        1.6080    -0.4410    -0.7000 C.2   1 <1>  -0.1400 
  4 N        1.3930     1.8120    -0.2030 N.2   1 <1>  -0.5650 
  5 N       -0.9180     2.3830    -0.4440 N.am  1 <1>  -0.1840 
  6 C        2.2390     0.7010    -0.3220 C.2   1 <1>   0.1410 
  7 C        2.0580    -1.8610    -1.0010 C.3   1 <1>  -0.0600 
  8 C       -1.3650     3.0390     0.6640 C.2   1 <1>   0.5690 
  9 C       -1.5810     2.8100    -1.5540 C.2   1 <1>   0.5690 
 10 C        3.6530     0.8650    -0.0330 C.2   1 <1>   0.5950 
 11 O       -1.0390     2.8230     1.8020 O.2   1 <1>  -0.5700 
 12 C       -2.4080     4.0790     0.3030 C.3   1 <1>  -0.0190 
 13 O       -1.4480     2.3850    -2.6710 O.2   1 <1>  -0.5700 
 14 C       -2.5490     3.9210    -1.2240 C.3   1 <1>  -0.0990 
 15 O        4.3210     1.8010    -0.3930 O.2   1 <1>  -0.5700 
 16 C        4.3650    -0.1910     0.7860 C.3   1 <1>  -0.1790 
 17 C       -1.9790     5.4890     0.7430 C.3   1 <1>  -0.0160 
 18 C       -3.0120     6.5270     0.3320 C.ar  1 <1>  -0.1440 
 19 C       -4.2200     6.6080     1.0060 C.ar  1 <1>  -0.1500 
 20 C       -2.7580     7.3970    -0.7170 C.ar  1 <1>  -0.1500 
 21 C       -5.1750     7.5380     0.6310 C.ar  1 <1>  -0.1440 
 22 C       -3.7040     8.3340    -1.0990 C.ar  1 <1>  -0.1440 
 23 C       -4.9110     8.3970    -0.4230 C.ar  1 <1>  -0.1500 
 24 C       -6.4990     7.6260     1.3680 C.3   1 <1>  -0.0970 
 25 C       -3.4250     9.2820    -2.2510 C.3   1 <1>  -0.0970 
 26 H        1.6950    -2.1580    -1.9700 H     1 <1>   0.0800 
 27 H        1.6620    -2.5360    -0.2640 H     1 <1>   0.0800 
 28 H        3.1290    -1.9390    -1.0080 H     1 <1>   0.0800 
 29 H       -3.3320     3.8130     0.7850 H     1 <1>   0.0800 
 30 H       -3.5480     3.6350    -1.4990 H     1 <1>   0.0800 
 31 H       -2.2670     4.8070    -1.7630 H     1 <1>   0.0800 
 32 H        4.9740    -0.7970     0.1420 H     1 <1>   0.0800 
 33 H        3.6590    -0.8090     1.3090 H     1 <1>   0.0800 
 34 H        4.9990     0.2910     1.5070 H     1 <1>   0.0800 
 35 H       -1.0210     5.7330     0.3180 H     1 <1>   0.0800 
 36 H       -1.8680     5.5110     1.8140 H     1 <1>   0.0800 
 37 H       -4.4200     5.9440     1.8280 H     1 <1>   0.1500 
 38 H       -1.8210     7.3490    -1.2420 H     1 <1>   0.1500 
 39 H       -5.6500     9.1220    -0.7170 H     1 <1>   0.1500 
 40 H       -6.7090     6.7070     1.8860 H     1 <1>   0.0800 
 41 H       -7.2980     7.8150     0.6740 H     1 <1>   0.0800 
 42 H       -6.4630     8.4270     2.0840 H     1 <1>   0.0800 
 43 H       -3.8080     8.8660    -3.1650 H     1 <1>   0.0800 
 44 H       -2.3680     9.4460    -2.3580 H     1 <1>   0.0800 
 45 H       -3.8980    10.2320    -2.0750 H     1 <1>   0.0800 
@<TRIPOS>BOND
  1   1   2  1   
  2   1   3  1   
  3   2   4  2   
  4   2   5  1   
  5   3   6  2   
  6   3   7  1   
  7   4   6  1   
  8   5   8  am  
  9   5   9  am  
 10   6  10  1   
 11   7  26  1   
 12   7  27  1   
 13   7  28  1   
 14   8  11  2   
 15   8  12  1   
 16   9  13  2   
 17   9  14  1   
 18  10  15  2   
 19  10  16  1   
 20  12  14  1   
 21  12  17  1   
 22  12  29  1   
 23  14  30  1   
 24  14  31  1   
 25  16  32  1   
 26  16  33  1   
 27  16  34  1   
 28  17  18  1   
 29  17  35  1   
 30  17  36  1   
 31  18  19  ar  
 32  18  20  ar  
 33  19  21  ar  
 34  19  37  1   
 35  20  22  ar  
 36  20  38  1   
 37  21  23  ar  
 38  21  24  1   
 39  22  23  ar  
 40  22  25  1   
 41  23  39  1   
 42  24  40  1   
 43  24  41  1   
 44  24  42  1   
 45  25  43  1   
 46  25  44  1   
 47  25  45  1   
@<TRIPOS>SUBSTRUCTURE
  1 ****   8 GROUP 4 **** **** 0

# MOE 2024.06 (io_trps.svl 2023.06)
