@<TRIPOS>MOLECULE
6-[3-Ethoxy-4-(2-hydroxy-ethoxy)-phenyl]-6,8,9,10-tetrahydro-5H-benzo[c]phenanth
59 63 1 0 0 
SMALL
USER_CHARGES


@<TRIPOS>ATOM
  1 O       -0.2400     0.7570    -1.1490 O.2   1 <1>  -0.5700 
  2 C       -1.1270     1.0570    -0.3870 C.2   1 <1>   0.4950 
  3 C       -2.2920     0.2670    -0.1500 C.2   1 <1>  -0.1240 
  4 C       -1.0020     2.3700     0.3610 C.3   1 <1>  -0.0990 
  5 C       -3.3670     0.6670     0.5850 C.2   1 <1>  -0.1670 
  6 C       -2.2530    -1.1070    -0.8040 C.3   1 <1>   0.5710 
  7 C       -2.3770     3.0250     0.5470 C.3   1 <1>  -0.1600 
  8 C       -4.5090    -0.1900     0.7800 C.ar  1 <1>   0.0280 
  9 C       -3.3740     2.0650     1.2130 C.3   1 <1>  -0.0220 
 10 N       -3.5930    -1.7390    -0.8180 N.pl3 1 <1>  -0.8690 
 11 C       -1.2860    -2.0470    -0.0800 C.ar  1 <1>  -0.1440 
 12 C       -4.6230    -1.3620     0.0300 C.ar  1 <1>   0.1000 
 13 C       -5.5220     0.0940     1.7200 C.ar  1 <1>  -0.1500 
 14 C       -0.0520    -2.3360    -0.6480 C.ar  1 <1>  -0.1500 
 15 C       -1.6130    -2.6150     1.1450 C.ar  1 <1>  -0.1500 
 16 C       -5.7690    -2.2020     0.1470 C.ar  1 <1>   0.0000 
 17 C       -6.6030    -0.7210     1.8750 C.ar  1 <1>  -0.1500 
 18 C        0.8500    -3.1850    -0.0130 C.ar  1 <1>   0.0820 
 19 C       -0.7320    -3.4730     1.7800 C.ar  1 <1>  -0.1500 
 20 C       -6.7620    -1.8820     1.0970 C.ar  1 <1>   0.0000 
 21 C       -5.9750    -3.3550    -0.6450 C.ar  1 <1>  -0.1500 
 22 O        2.0810    -3.4480    -0.5340 O.3   1 <1>  -0.3620 
 23 C        0.4890    -3.7740     1.2030 C.ar  1 <1>   0.0820 
 24 C       -7.8830    -2.7210     1.2420 C.ar  1 <1>  -0.1500 
 25 C       -7.0750    -4.1550    -0.4900 C.ar  1 <1>  -0.1500 
 26 C        2.6700    -2.5850    -1.4790 C.3   1 <1>   0.1200 
 27 O        1.2980    -4.6290     1.8810 O.3   1 <1>  -0.3630 
 28 C       -8.0400    -3.8380     0.4670 C.ar  1 <1>  -0.1500 
 29 C        4.1260    -3.0060    -1.6530 C.3   1 <1>  -0.2400 
 30 C        1.7310    -5.8060     1.2250 C.3   1 <1>   0.1200 
 31 C        3.2570    -5.8680     1.2870 C.3   1 <1>   0.1200 
 32 O        3.6910    -7.1060     0.8280 O.3   1 <1>  -0.6800 
 33 H       -0.3560     3.0320    -0.1890 H     1 <1>   0.0800 
 34 H       -0.5510     2.1760     1.3170 H     1 <1>   0.0800 
 35 H       -1.9430    -0.9920    -1.8280 H     1 <1>   0.0800 
 36 H       -2.7600     3.3040    -0.4200 H     1 <1>   0.0800 
 37 H       -2.2830     3.9210     1.1360 H     1 <1>   0.0800 
 38 H       -3.1430     1.9740     2.2610 H     1 <1>   0.0800 
 39 H       -4.3530     2.5030     1.1210 H     1 <1>   0.0800 
 40 H       -3.5420    -2.7220    -1.0920 H     1 <1>   0.4000 
 41 H       -5.4440     0.9650     2.3400 H     1 <1>   0.1500 
 42 H        0.1980    -1.8830    -1.5880 H     1 <1>   0.1500 
 43 H       -2.5590    -2.3930     1.6100 H     1 <1>   0.1500 
 44 H       -7.3620    -0.4870     2.6000 H     1 <1>   0.1500 
 45 H       -0.9900    -3.9130     2.7250 H     1 <1>   0.1500 
 46 H       -5.2500    -3.6090    -1.3940 H     1 <1>   0.1500 
 47 H       -8.6240    -2.4680     1.9780 H     1 <1>   0.1500 
 48 H       -7.2120    -5.0300    -1.1010 H     1 <1>   0.1500 
 49 H        2.6050    -1.5750    -1.1090 H     1 <1>   0.0800 
 50 H        2.1350    -2.6780    -2.4080 H     1 <1>   0.0800 
 51 H       -8.8990    -4.4760     0.5820 H     1 <1>   0.1500 
 52 H        4.6480    -2.9180    -0.7180 H     1 <1>   0.0800 
 53 H        4.6040    -2.3720    -2.3760 H     1 <1>   0.0800 
 54 H        4.1770    -4.0230    -1.9990 H     1 <1>   0.0800 
 55 H        1.3930    -5.8000     0.2040 H     1 <1>   0.0800 
 56 H        1.2940    -6.6370     1.7470 H     1 <1>   0.0800 
 57 H        3.6050    -5.7420     2.2970 H     1 <1>   0.0800 
 58 H        3.6880    -5.1100     0.6560 H     1 <1>   0.0800 
 59 H        3.4400    -7.8140     1.4520 H     1 <1>   0.4000 
@<TRIPOS>BOND
  1   1   2  2   
  2   2   3  1   
  3   2   4  1   
  4   3   5  2   
  5   3   6  1   
  6   4   7  1   
  7   4  33  1   
  8   4  34  1   
  9   5   8  1   
 10   5   9  1   
 11   6  10  1   
 12   6  11  1   
 13   6  35  1   
 14   7   9  1   
 15   7  36  1   
 16   7  37  1   
 17   8  12  ar  
 18   8  13  ar  
 19   9  38  1   
 20   9  39  1   
 21  10  12  1   
 22  10  40  1   
 23  11  14  ar  
 24  11  15  ar  
 25  12  16  ar  
 26  13  17  ar  
 27  13  41  1   
 28  14  18  ar  
 29  14  42  1   
 30  15  19  ar  
 31  15  43  1   
 32  16  20  ar  
 33  16  21  ar  
 34  17  20  ar  
 35  17  44  1   
 36  18  22  1   
 37  18  23  ar  
 38  19  23  ar  
 39  19  45  1   
 40  20  24  ar  
 41  21  25  ar  
 42  21  46  1   
 43  22  26  1   
 44  23  27  1   
 45  24  28  ar  
 46  24  47  1   
 47  25  28  ar  
 48  25  48  1   
 49  26  29  1   
 50  26  49  1   
 51  26  50  1   
 52  27  30  1   
 53  28  51  1   
 54  29  52  1   
 55  29  53  1   
 56  29  54  1   
 57  30  31  1   
 58  30  55  1   
 59  30  56  1   
 60  31  32  1   
 61  31  57  1   
 62  31  58  1   
 63  32  59  1   
@<TRIPOS>SUBSTRUCTURE
  1 ****  11 GROUP 4 **** **** 0

# MOE 2024.06 (io_trps.svl 2023.06)
