@<TRIPOS>MOLECULE
N-(2,3-Dimethyl-phenyl)-3-[3-(3,4,5-trimethoxy-phenyl)-[1,2,4]oxadiazol-5-yl]-pr
55 57 1 0 0 
SMALL
USER_CHARGES


@<TRIPOS>ATOM
  1 O       -0.2820    -0.4710     0.6910 O.2   1 <1>  -0.5700 
  2 C        0.3490    -1.4960     0.7200 C.2   1 <1>   0.5690 
  3 N        1.6790    -1.4600     0.9870 N.am  1 <1>  -0.5470 
  4 C       -0.3420    -2.8210     0.4430 C.3   1 <1>  -0.0990 
  5 C        2.6030    -2.5080     1.0580 C.ar  1 <1>   0.1170 
  6 C       -1.6740    -2.6530    -0.3050 C.3   1 <1>   0.0200 
  7 C        3.6770    -2.5960     0.1670 C.ar  1 <1>  -0.1430 
  8 C        2.4520    -3.4690     2.0490 C.ar  1 <1>  -0.1500 
  9 C       -2.3120    -3.9950    -0.5990 C.2   1 <1>   0.2980 
 10 C        4.5880    -3.6440     0.2920 C.ar  1 <1>  -0.1430 
 11 C        3.8440    -1.5430    -0.9320 C.3   1 <1>  -0.0960 
 12 C        3.3470    -4.5130     2.1600 C.ar  1 <1>  -0.1500 
 13 O       -1.7450    -4.7830    -1.4740 O.3   1 <1>  -0.0190 
 14 N       -3.3690    -4.4460    -0.0630 N.2   1 <1>  -0.5650 
 15 C        4.4110    -4.5970     1.2840 C.ar  1 <1>  -0.1500 
 16 C        5.7940    -3.7890    -0.6290 C.3   1 <1>  -0.0970 
 17 N       -2.5090    -5.8300    -1.4960 N.2   1 <1>  -0.4100 
 18 C       -3.4720    -5.6350    -0.6660 C.2   1 <1>   0.4620 
 19 C       -4.5550    -6.5650    -0.3890 C.ar  1 <1>   0.0540 
 20 C       -4.5960    -7.8220    -0.9920 C.ar  1 <1>  -0.1500 
 21 C       -5.5930    -6.2430     0.4870 C.ar  1 <1>  -0.1500 
 22 C       -5.6130    -8.7240    -0.7410 C.ar  1 <1>   0.0830 
 23 C       -6.6350    -7.1260     0.7500 C.ar  1 <1>   0.0830 
 24 O       -5.5240    -9.9200    -1.3840 O.3   1 <1>  -0.3630 
 25 C       -6.6550    -8.3730     0.1220 C.ar  1 <1>   0.0830 
 26 O       -7.6560    -6.8180     1.6030 O.3   1 <1>  -0.3630 
 27 C       -5.7330   -11.1060    -0.6480 C.3   1 <1>   0.0400 
 28 O       -7.6870    -9.2270     0.3520 O.3   1 <1>  -0.3630 
 29 C       -7.6310    -5.6540     2.4000 C.3   1 <1>   0.0400 
 30 C       -8.8560    -8.9730    -0.3910 C.3   1 <1>   0.0400 
 31 H        2.0540    -0.5150     1.0680 H     1 <1>   0.3700 
 32 H       -0.5230    -3.3150     1.3800 H     1 <1>   0.0800 
 33 H        0.3140    -3.4390    -0.1430 H     1 <1>   0.0800 
 34 H       -1.5120    -2.1320    -1.2320 H     1 <1>   0.0800 
 35 H       -2.3530    -2.0680     0.2910 H     1 <1>   0.0800 
 36 H        1.6330    -3.3950     2.7410 H     1 <1>   0.1500 
 37 H        4.4430    -0.7290    -0.5660 H     1 <1>   0.0800 
 38 H        2.8940    -1.1570    -1.2530 H     1 <1>   0.0800 
 39 H        4.3170    -1.9550    -1.8030 H     1 <1>   0.0800 
 40 H        3.2210    -5.2560     2.9290 H     1 <1>   0.1500 
 41 H        5.1040    -5.4130     1.3830 H     1 <1>   0.1500 
 42 H        5.4710    -4.0680    -1.6150 H     1 <1>   0.0800 
 43 H        6.4670    -4.5460    -0.2680 H     1 <1>   0.0800 
 44 H        6.3360    -2.8630    -0.6820 H     1 <1>   0.0800 
 45 H       -3.8150    -8.1120    -1.6720 H     1 <1>   0.1500 
 46 H       -5.5680    -5.2780     0.9560 H     1 <1>   0.1500 
 47 H       -6.7870   -11.3110    -0.6070 H     1 <1>   0.0800 
 48 H       -5.2270   -11.9080    -1.1550 H     1 <1>   0.0800 
 49 H       -5.3320   -10.9830     0.3430 H     1 <1>   0.0800 
 50 H       -6.7390    -5.6600     3.0000 H     1 <1>   0.0800 
 51 H       -8.4990    -5.6670     3.0350 H     1 <1>   0.0800 
 52 H       -7.6610    -4.7910     1.7590 H     1 <1>   0.0800 
 53 H       -9.5830    -9.7240    -0.1430 H     1 <1>   0.0800 
 54 H       -9.2300    -7.9980    -0.1330 H     1 <1>   0.0800 
 55 H       -8.6160    -9.0190    -1.4390 H     1 <1>   0.0800 
@<TRIPOS>BOND
  1   1   2  2   
  2   2   3  am  
  3   2   4  1   
  4   3   5  1   
  5   3  31  1   
  6   4   6  1   
  7   4  32  1   
  8   4  33  1   
  9   5   7  ar  
 10   5   8  ar  
 11   6   9  1   
 12   6  34  1   
 13   6  35  1   
 14   7  10  ar  
 15   7  11  1   
 16   8  12  ar  
 17   8  36  1   
 18   9  13  1   
 19   9  14  2   
 20  10  15  ar  
 21  10  16  1   
 22  11  37  1   
 23  11  38  1   
 24  11  39  1   
 25  12  15  ar  
 26  12  40  1   
 27  13  17  1   
 28  14  18  1   
 29  15  41  1   
 30  16  42  1   
 31  16  43  1   
 32  16  44  1   
 33  17  18  2   
 34  18  19  1   
 35  19  20  ar  
 36  19  21  ar  
 37  20  22  ar  
 38  20  45  1   
 39  21  23  ar  
 40  21  46  1   
 41  22  24  1   
 42  22  25  ar  
 43  23  25  ar  
 44  23  26  1   
 45  24  27  1   
 46  25  28  1   
 47  26  29  1   
 48  27  47  1   
 49  27  48  1   
 50  27  49  1   
 51  28  30  1   
 52  29  50  1   
 53  29  51  1   
 54  29  52  1   
 55  30  53  1   
 56  30  54  1   
 57  30  55  1   
@<TRIPOS>SUBSTRUCTURE
  1 ****   9 GROUP 4 **** **** 0

# MOE 2024.06 (io_trps.svl 2023.06)
