@<TRIPOS>MOLECULE
4-(2,5-Dichloro-phenyl)-piperazine-1-sulfonic acid dimethylamide
37 38 1 0 0 
SMALL
USER_CHARGES


@<TRIPOS>ATOM
  1 CL       0.0710    -1.3260     1.9270 Cl    1 <1>  -0.1770 
  2 C        0.5110    -2.0280     0.3810 C.ar  1 <1>   0.1770 
  3 C       -0.4700    -2.5270    -0.4900 C.ar  1 <1>   0.1000 
  4 C        1.8580    -2.0660     0.0640 C.ar  1 <1>  -0.1500 
  5 N       -1.8460    -2.5220    -0.2370 N.pl3 1 <1>  -0.8380 
  6 C       -0.0430    -3.0670    -1.6970 C.ar  1 <1>  -0.1500 
  7 C        2.2610    -2.6090    -1.1450 C.ar  1 <1>  -0.1500 
  8 C       -2.5380    -1.1960    -0.2150 C.3   1 <1>   0.2090 
  9 C       -2.3500    -3.4200     0.8480 C.3   1 <1>   0.2090 
 10 C        1.3010    -3.1030    -2.0100 C.ar  1 <1>   0.1770 
 11 C       -4.0690    -1.3680    -0.2550 C.3   1 <1>   0.1960 
 12 C       -3.8840    -3.5540     0.7890 C.3   1 <1>   0.1960 
 13 CL       1.8070    -3.7890    -3.5330 Cl    1 <1>  -0.1770 
 14 N       -4.5530    -2.2420     0.8260 N.am  1 <1>  -0.8490 
 15 S       -6.2350    -2.3500     0.8970 S.o2  1 <1>   1.5760 
 16 O       -6.7720    -1.0070     0.8720 O.2   1 <1>  -0.6500 
 17 O       -6.5810    -3.2750     1.9550 O.2   1 <1>  -0.6500 
 18 N       -6.5550    -3.0920    -0.6000 N.am  1 <1>  -0.8490 
 19 C       -7.3430    -2.2550    -1.5080 C.3   1 <1>   0.1160 
 20 C       -7.1610    -4.4210    -0.4740 C.3   1 <1>   0.1160 
 21 H        2.5810    -1.6730     0.7570 H     1 <1>   0.1500 
 22 H       -0.7680    -3.4580    -2.3860 H     1 <1>   0.1500 
 23 H        3.3010    -2.6510    -1.4160 H     1 <1>   0.1500 
 24 H       -2.2200    -0.6130    -1.0610 H     1 <1>   0.0800 
 25 H       -2.2730    -0.6610     0.6800 H     1 <1>   0.0800 
 26 H       -2.0740    -3.0220     1.8090 H     1 <1>   0.0800 
 27 H       -1.9010    -4.3920     0.7440 H     1 <1>   0.0800 
 28 H       -4.3430    -1.7800    -1.2110 H     1 <1>   0.0800 
 29 H       -4.5260    -0.3980    -0.1640 H     1 <1>   0.0800 
 30 H       -4.2100    -4.1460     1.6270 H     1 <1>   0.0800 
 31 H       -4.1490    -4.0750    -0.1140 H     1 <1>   0.0800 
 32 H       -6.8410    -1.3170    -1.6750 H     1 <1>   0.0800 
 33 H       -8.3150    -2.0560    -1.0870 H     1 <1>   0.0800 
 34 H       -7.4640    -2.7470    -2.4580 H     1 <1>   0.0800 
 35 H       -6.5250    -5.0620     0.1150 H     1 <1>   0.0800 
 36 H       -7.2850    -4.8680    -1.4450 H     1 <1>   0.0800 
 37 H       -8.1210    -4.3510     0.0100 H     1 <1>   0.0800 
@<TRIPOS>BOND
  1   1   2  1   
  2   2   3  ar  
  3   2   4  ar  
  4   3   5  1   
  5   3   6  ar  
  6   4   7  ar  
  7   4  21  1   
  8   5   8  1   
  9   5   9  1   
 10   6  10  ar  
 11   6  22  1   
 12   7  10  ar  
 13   7  23  1   
 14   8  11  1   
 15   8  24  1   
 16   8  25  1   
 17   9  12  1   
 18   9  26  1   
 19   9  27  1   
 20  10  13  1   
 21  11  14  1   
 22  11  28  1   
 23  11  29  1   
 24  12  14  1   
 25  12  30  1   
 26  12  31  1   
 27  14  15  am  
 28  15  16  2   
 29  15  17  2   
 30  15  18  am  
 31  18  19  1   
 32  18  20  1   
 33  19  32  1   
 34  19  33  1   
 35  19  34  1   
 36  20  35  1   
 37  20  36  1   
 38  20  37  1   
@<TRIPOS>SUBSTRUCTURE
  1 ****   5 GROUP 4 **** **** 0

# MOE 2024.06 (io_trps.svl 2023.06)
