@<TRIPOS>MOLECULE
1,3-Dimethyl-8-morpholin-4-ylmethyl-7-(2-oxo-2-phenyl-ethyl)-3,7-dihydro-purine-
53 56 1 0 0 
SMALL
USER_CHARGES


@<TRIPOS>ATOM
  1 O        1.1760     1.5950    -1.8500 O.2   1 <1>  -0.5700 
  2 C        2.1770     1.9050    -1.2370 C.2   1 <1>   0.6900 
  3 N        2.1760     3.0420    -0.4360 N.am  1 <1>  -0.4200 
  4 N        3.3200     1.1270    -1.3400 N.am  1 <1>  -0.4360 
  5 C        3.3220     3.4520     0.2320 C.2   1 <1>   0.7030 
  6 C        0.9180     3.8470    -0.3350 C.3   1 <1>   0.0600 
  7 C        4.4530     1.5450    -0.6690 C.2   1 <1>   0.4260 
  8 C        3.3400    -0.1010    -2.1900 C.3   1 <1>   0.0600 
  9 O        3.3190     4.4630     0.9130 O.2   1 <1>  -0.5700 
 10 C        4.5100     2.6580     0.1020 C.2   1 <1>   0.2770 
 11 N        5.6720     0.9570    -0.6480 N.pl3 1 <1>  -0.7000 
 12 N        5.8170     2.7320     0.6040 N.pl3 1 <1>  -0.7640 
 13 C        6.4790     1.6820     0.1160 C.cat 1 <1>   0.6560 
 14 C        6.3530     3.8280     1.4900 C.3   1 <1>   0.4150 
 15 C        7.9430     1.2590     0.3420 C.3   1 <1>   0.2540 
 16 C        7.3820     4.7050     0.7710 C.2   1 <1>   0.4230 
 17 N        8.1250    -0.2120     0.1950 N.3   1 <1>  -0.8100 
 18 O        8.4420     4.1700     0.5490 O.2   1 <1>  -0.5700 
 19 C        7.0950     6.0720     0.3690 C.ar  1 <1>   0.0860 
 20 C        9.5530    -0.5400    -0.0230 C.3   1 <1>   0.1100 
 21 C        7.6390    -0.9470     1.3880 C.3   1 <1>   0.1100 
 22 C        8.0780     6.8040    -0.3040 C.ar  1 <1>  -0.1500 
 23 C        5.8810     6.7310     0.6040 C.ar  1 <1>  -0.1500 
 24 C        9.7730    -2.0620    -0.1000 C.3   1 <1>   0.1200 
 25 C        7.9080    -2.4570     1.2580 C.3   1 <1>   0.1200 
 26 C        7.8710     8.1050    -0.7220 C.ar  1 <1>  -0.1500 
 27 C        5.6670     8.0320     0.1890 C.ar  1 <1>  -0.1500 
 28 O        9.2680    -2.6830     1.0460 O.3   1 <1>  -0.5600 
 29 C        6.6610     8.7240    -0.4760 C.ar  1 <1>  -0.1500 
 30 H        0.0640     3.1930    -0.2700 H     1 <1>   0.0800 
 31 H        0.8130     4.4650    -1.2100 H     1 <1>   0.0800 
 32 H        0.9250     4.4760     0.5390 H     1 <1>   0.0800 
 33 H        2.3400    -0.4670    -2.3540 H     1 <1>   0.0800 
 34 H        3.9050    -0.8800    -1.7090 H     1 <1>   0.0800 
 35 H        3.7830     0.1260    -3.1440 H     1 <1>   0.0800 
 36 H        5.9940     0.0940    -1.0970 H     1 <1>   0.4500 
 37 H        6.8490     3.3730     2.3300 H     1 <1>   0.0800 
 38 H        5.5520     4.4110     1.8980 H     1 <1>   0.0800 
 39 H        8.2790     1.5790     1.3130 H     1 <1>   0.0800 
 40 H        8.5400     1.7640    -0.3970 H     1 <1>   0.0800 
 41 H       10.1530    -0.1480     0.7810 H     1 <1>   0.0800 
 42 H        9.8920    -0.0940    -0.9430 H     1 <1>   0.0800 
 43 H        6.5820    -0.7940     1.5130 H     1 <1>   0.0800 
 44 H        8.1390    -0.5910     2.2740 H     1 <1>   0.0800 
 45 H        9.0330     6.3480    -0.5080 H     1 <1>   0.1500 
 46 H        5.0670     6.2560     1.1160 H     1 <1>   0.1500 
 47 H       10.8230    -2.2860    -0.1580 H     1 <1>   0.0800 
 48 H        9.2820    -2.4780    -0.9640 H     1 <1>   0.0800 
 49 H        7.3550    -2.8770     0.4360 H     1 <1>   0.0800 
 50 H        7.6290    -2.9680     2.1620 H     1 <1>   0.0800 
 51 H        8.6510     8.6380    -1.2380 H     1 <1>   0.1500 
 52 H        4.7230     8.5150     0.3830 H     1 <1>   0.1500 
 53 H        6.4950     9.7380    -0.7990 H     1 <1>   0.1500 
@<TRIPOS>BOND
  1   1   2  2   
  2   2   3  am  
  3   2   4  am  
  4   3   5  am  
  5   3   6  1   
  6   4   7  1   
  7   4   8  1   
  8   5   9  2   
  9   5  10  1   
 10   6  30  1   
 11   6  31  1   
 12   6  32  1   
 13   7  10  2   
 14   7  11  1   
 15   8  33  1   
 16   8  34  1   
 17   8  35  1   
 18  10  12  1   
 19  11  13  ar  
 20  11  36  1   
 21  12  13  ar  
 22  12  14  1   
 23  13  15  1   
 24  14  16  1   
 25  14  37  1   
 26  14  38  1   
 27  15  17  1   
 28  15  39  1   
 29  15  40  1   
 30  16  18  2   
 31  16  19  1   
 32  17  20  1   
 33  17  21  1   
 34  19  22  ar  
 35  19  23  ar  
 36  20  24  1   
 37  20  41  1   
 38  20  42  1   
 39  21  25  1   
 40  21  43  1   
 41  21  44  1   
 42  22  26  ar  
 43  22  45  1   
 44  23  27  ar  
 45  23  46  1   
 46  24  28  1   
 47  24  47  1   
 48  24  48  1   
 49  25  28  1   
 50  25  49  1   
 51  25  50  1   
 52  26  29  ar  
 53  26  51  1   
 54  27  29  ar  
 55  27  52  1   
 56  29  53  1   
@<TRIPOS>SUBSTRUCTURE
  1 ****  12 GROUP 4 **** **** 0

# MOE 2024.06 (io_trps.svl 2023.06)
