@<TRIPOS>MOLECULE
N-(3-Methoxy-phenyl)-2-(4-oxo-5,6,7,8-tetrahydro-4H-benzo[4,5]thieno[2,3-d]pyrim
45 48 1 0 0 
SMALL
USER_CHARGES


@<TRIPOS>ATOM
  1 S        0.6130     2.0450     1.4890 S.3   1 <1>  -0.0800 
  2 C        2.1480     1.2090     1.3380 C.2   1 <1>   0.1660 
  3 C        0.8800     2.8680    -0.0400 C.2   1 <1>  -0.1400 
  4 N        2.5870     0.3340     2.2780 N.2   1 <1>  -0.5760 
  5 C        2.7930     1.5570     0.1910 C.2   1 <1>  -0.0860 
  6 C        2.0570     2.5210    -0.5860 C.2   1 <1>  -0.1810 
  7 C       -0.1500     3.8320    -0.5840 C.3   1 <1>   0.0200 
  8 C        3.7240    -0.2140     2.0270 C.2   1 <1>   0.4500 
  9 C        4.0480     0.9270    -0.0400 C.2   1 <1>   0.7160 
 10 C        2.5260     3.1120    -1.9070 C.3   1 <1>   0.0210 
 11 C        0.1770     4.1380    -2.0570 C.3   1 <1>  -0.1600 
 12 N        4.4790     0.0160     0.9010 N.am  1 <1>  -0.4200 
 13 O        4.7560     1.1630    -1.0130 O.2   1 <1>  -0.5700 
 14 C        1.6890     4.3530    -2.2830 C.3   1 <1>  -0.1600 
 15 C        5.7700    -0.7100     0.7120 C.3   1 <1>   0.2010 
 16 C        6.9780     0.1410     1.0820 C.2   1 <1>   0.5690 
 17 O        7.6090    -0.1760     2.0610 O.2   1 <1>  -0.5700 
 18 N        7.2790     1.2160     0.2890 N.am  1 <1>  -0.5470 
 19 C        8.3040     2.1720     0.3460 C.ar  1 <1>   0.1170 
 20 C        8.1670     3.3270    -0.4140 C.ar  1 <1>  -0.1500 
 21 C        9.4560     2.0200     1.1120 C.ar  1 <1>  -0.1500 
 22 C        9.1410     4.3090    -0.4140 C.ar  1 <1>   0.0820 
 23 C       10.4360     2.9960     1.1210 C.ar  1 <1>  -0.1500 
 24 O        8.9100     5.3980    -1.1900 O.3   1 <1>  -0.3630 
 25 C       10.2850     4.1420     0.3610 C.ar  1 <1>  -0.1500 
 26 C        9.8370     6.4590    -1.2580 C.3   1 <1>   0.0400 
 27 H       -0.1220     4.7350    -0.0010 H     1 <1>   0.0800 
 28 H       -1.1350     3.4040    -0.5080 H     1 <1>   0.0800 
 29 H        4.1280    -0.9110     2.7410 H     1 <1>   0.0600 
 30 H        2.4330     2.3630    -2.6730 H     1 <1>   0.0800 
 31 H        3.5610     3.3950    -1.8380 H     1 <1>   0.0800 
 32 H       -0.3690     5.0100    -2.3710 H     1 <1>   0.0800 
 33 H       -0.1470     3.3090    -2.6630 H     1 <1>   0.0800 
 34 H        1.8720     4.6060    -3.3120 H     1 <1>   0.0800 
 35 H        2.0130     5.1830    -1.6780 H     1 <1>   0.0800 
 36 H        5.8630    -1.0200    -0.3140 H     1 <1>   0.0800 
 37 H        5.7780    -1.5970     1.3210 H     1 <1>   0.0800 
 38 H        6.5830     1.3990    -0.4470 H     1 <1>   0.3700 
 39 H        7.2910     3.4730    -1.0170 H     1 <1>   0.1500 
 40 H        9.5980     1.1360     1.7070 H     1 <1>   0.1500 
 41 H       11.3190     2.8600     1.7220 H     1 <1>   0.1500 
 42 H       11.0600     4.8830     0.3860 H     1 <1>   0.1500 
 43 H        9.4450     7.2030    -1.9270 H     1 <1>   0.0800 
 44 H       10.7710     6.0820    -1.6380 H     1 <1>   0.0800 
 45 H        9.9610     6.8780    -0.2760 H     1 <1>   0.0800 
@<TRIPOS>BOND
  1   1   2  1   
  2   1   3  1   
  3   2   4  1   
  4   2   5  2   
  5   3   6  2   
  6   3   7  1   
  7   4   8  2   
  8   5   6  1   
  9   5   9  1   
 10   6  10  1   
 11   7  11  1   
 12   7  27  1   
 13   7  28  1   
 14   8  12  1   
 15   8  29  1   
 16   9  12  am  
 17   9  13  2   
 18  10  14  1   
 19  10  30  1   
 20  10  31  1   
 21  11  14  1   
 22  11  32  1   
 23  11  33  1   
 24  12  15  1   
 25  14  34  1   
 26  14  35  1   
 27  15  16  1   
 28  15  36  1   
 29  15  37  1   
 30  16  17  2   
 31  16  18  am  
 32  18  19  1   
 33  18  38  1   
 34  19  20  ar  
 35  19  21  ar  
 36  20  22  ar  
 37  20  39  1   
 38  21  23  ar  
 39  21  40  1   
 40  22  24  1   
 41  22  25  ar  
 42  23  25  ar  
 43  23  41  1   
 44  24  26  1   
 45  25  42  1   
 46  26  43  1   
 47  26  44  1   
 48  26  45  1   
@<TRIPOS>SUBSTRUCTURE
  1 ****  13 GROUP 4 **** **** 0

# MOE 2024.06 (io_trps.svl 2023.06)
