@<TRIPOS>MOLECULE
1-Isopropyl-5-oxo-pyrrolidine-3-carboxylic acid (3,4-dichloro-phenyl)-amide
36 37 1 0 0 
SMALL
USER_CHARGES


@<TRIPOS>ATOM
  1 CL      -0.0520    -0.3240     0.0570 Cl    1 <1>  -0.1770 
  2 C       -1.7980    -0.3720     0.1190 C.ar  1 <1>   0.1770 
  3 C       -2.5330     0.7880     0.2980 C.ar  1 <1>   0.1770 
  4 C       -2.4320    -1.5930    -0.0140 C.ar  1 <1>  -0.1500 
  5 CL      -1.7400     2.3380     0.4670 Cl    1 <1>  -0.1770 
  6 C       -3.9140     0.7310     0.3490 C.ar  1 <1>  -0.1500 
  7 C       -3.8200    -1.6700     0.0300 C.ar  1 <1>   0.1170 
  8 C       -4.5480    -0.4930     0.2170 C.ar  1 <1>  -0.1500 
  9 N       -4.4250    -2.9300    -0.1000 N.am  1 <1>  -0.5470 
 10 C       -5.6860    -3.2760    -0.5070 C.2   1 <1>   0.5690 
 11 O       -6.5030    -2.4710    -0.8800 O.2   1 <1>  -0.5700 
 12 C       -6.0520    -4.7550    -0.5270 C.3   1 <1>  -0.0190 
 13 C       -7.5690    -5.0080    -0.5530 C.3   1 <1>   0.1400 
 14 C       -5.5330    -5.5680     0.6760 C.3   1 <1>  -0.0990 
 15 N       -7.7240    -6.2720     0.1970 N.am  1 <1>  -0.6600 
 16 C       -6.6060    -6.5980     0.8810 C.2   1 <1>   0.5690 
 17 C       -8.9860    -7.0410     0.2320 C.3   1 <1>   0.2200 
 18 O       -6.4470    -7.5700     1.5760 O.2   1 <1>  -0.5700 
 19 C       -9.2870    -7.5990    -1.1570 C.3   1 <1>  -0.2400 
 20 C      -10.1220    -6.1540     0.7400 C.3   1 <1>  -0.2400 
 21 H       -1.8380    -2.4760    -0.1550 H     1 <1>   0.1500 
 22 H       -4.4820     1.6340     0.4890 H     1 <1>   0.1500 
 23 H       -5.6230    -0.5270     0.2640 H     1 <1>   0.1500 
 24 H       -3.8100    -3.7160     0.1030 H     1 <1>   0.3700 
 25 H       -5.6460    -5.1790    -1.4280 H     1 <1>   0.0800 
 26 H       -7.9310    -5.0980    -1.5620 H     1 <1>   0.0800 
 27 H       -8.1060    -4.2270    -0.0410 H     1 <1>   0.0800 
 28 H       -5.4720    -4.9700     1.5660 H     1 <1>   0.0800 
 29 H       -4.5900    -6.0410     0.4730 H     1 <1>   0.0800 
 30 H       -8.8650    -7.8670     0.9150 H     1 <1>   0.0800 
 31 H       -9.4740    -6.8100    -1.8610 H     1 <1>   0.0800 
 32 H      -10.1590    -8.2260    -1.1130 H     1 <1>   0.0800 
 33 H       -8.4610    -8.1970    -1.4960 H     1 <1>   0.0800 
 34 H      -10.3170    -5.3470     0.0580 H     1 <1>   0.0800 
 35 H       -9.8700    -5.7560     1.7060 H     1 <1>   0.0800 
 36 H      -11.0190    -6.7370     0.8390 H     1 <1>   0.0800 
@<TRIPOS>BOND
  1   1   2  1   
  2   2   3  ar  
  3   2   4  ar  
  4   3   5  1   
  5   3   6  ar  
  6   4   7  ar  
  7   4  21  1   
  8   6   8  ar  
  9   6  22  1   
 10   7   8  ar  
 11   7   9  1   
 12   8  23  1   
 13   9  10  am  
 14   9  24  1   
 15  10  11  2   
 16  10  12  1   
 17  12  13  1   
 18  12  14  1   
 19  12  25  1   
 20  13  15  1   
 21  13  26  1   
 22  13  27  1   
 23  14  16  1   
 24  14  28  1   
 25  14  29  1   
 26  15  16  am  
 27  15  17  1   
 28  16  18  2   
 29  17  19  1   
 30  17  20  1   
 31  17  30  1   
 32  19  31  1   
 33  19  32  1   
 34  19  33  1   
 35  20  34  1   
 36  20  35  1   
 37  20  36  1   
@<TRIPOS>SUBSTRUCTURE
  1 ****  10 GROUP 4 **** **** 0

# MOE 2024.06 (io_trps.svl 2023.06)
