@<TRIPOS>MOLECULE
8-(3-Chloro-phenyl)-3-(2-methoxy-ethyl)-1-methyl-5,6,7,8-tetrahydro-1H-1,3,4b,8,
48 51 1 0 0 
SMALL
USER_CHARGES


@<TRIPOS>ATOM
  1 CL      -2.7530    -1.9390     2.5420 Cl    1 <1>  -0.1850 
  2 C       -3.1880    -1.4440     0.9290 C.ar  1 <1>   0.1690 
  3 C       -4.0730    -0.3990     0.7680 C.ar  1 <1>  -0.1580 
  4 C       -2.6480    -2.1070    -0.1560 C.ar  1 <1>  -0.1580 
  5 C       -4.4430    -0.0070    -0.5110 C.ar  1 <1>   0.3040 
  6 C       -3.0040    -1.7110    -1.4340 C.ar  1 <1>  -0.1580 
  7 N       -5.3700     1.0250    -0.6900 N.pl3 1 <1>  -0.5800 
  8 C       -3.8970    -0.6670    -1.6070 C.ar  1 <1>  -0.1580 
  9 C       -6.6640     0.9250    -0.3260 C.cat 1 <1>   1.0690 
 10 C       -4.8920     2.2810    -1.3350 C.3   1 <1>   0.1600 
 11 N       -7.2720    -0.1510     0.1700 N.pl3 1 <1>  -0.7040 
 12 N       -7.5270     1.9270    -0.4210 N.pl3 1 <1>  -0.7670 
 13 C       -5.6910     3.4900    -0.8240 C.3   1 <1>  -0.1680 
 14 C       -8.5750     0.1750     0.3980 C.2   1 <1>   0.4200 
 15 C       -8.7670     1.4630     0.0410 C.2   1 <1>   0.2700 
 16 C       -7.2050     3.2770    -0.9300 C.3   1 <1>   0.3480 
 17 N       -9.5750    -0.6320     0.9040 N.am  1 <1>  -0.4420 
 18 C      -10.0670     2.0410     0.1940 C.2   1 <1>   0.6990 
 19 C      -10.8370    -0.0770     1.0800 C.2   1 <1>   0.6860 
 20 C       -9.3040    -2.0540     1.2740 C.3   1 <1>   0.0520 
 21 O      -10.2840     3.1890    -0.1560 O.2   1 <1>  -0.5750 
 22 N      -11.0680     1.2530     0.7420 N.am  1 <1>  -0.4260 
 23 O      -11.7370    -0.7580     1.5230 O.2   1 <1>  -0.5750 
 24 C      -12.4240     1.8440     0.9850 C.3   1 <1>   0.1320 
 25 C      -13.3590     1.5540    -0.1890 C.3   1 <1>   0.1120 
 26 O      -14.5720     2.1830     0.0620 O.3   1 <1>  -0.5650 
 27 C      -15.5310     1.9700    -0.9220 C.3   1 <1>   0.0320 
 28 H       -4.4580     0.1020     1.6370 H     1 <1>   0.1420 
 29 H       -1.9570    -2.9190    -0.0010 H     1 <1>   0.1420 
 30 H       -2.5840    -2.2180    -2.2890 H     1 <1>   0.1420 
 31 H       -4.1700    -0.3670    -2.6040 H     1 <1>   0.1420 
 32 H       -5.0070     2.1920    -2.4030 H     1 <1>   0.0720 
 33 H       -3.8460     2.4260    -1.1200 H     1 <1>   0.0720 
 34 H       -6.8220    -1.0480     0.3300 H     1 <1>   0.4440 
 35 H       -5.4170     4.3650    -1.3850 H     1 <1>   0.0720 
 36 H       -5.4300     3.6800     0.2030 H     1 <1>   0.0720 
 37 H       -7.7250     4.0260    -0.3550 H     1 <1>   0.0720 
 38 H       -7.5220     3.3530    -1.9570 H     1 <1>   0.0720 
 39 H       -8.6600    -2.5140     0.5460 H     1 <1>   0.0720 
 40 H      -10.2200    -2.6200     1.3110 H     1 <1>   0.0720 
 41 H       -8.8380    -2.0940     2.2430 H     1 <1>   0.0720 
 42 H      -12.3460     2.9090     1.1190 H     1 <1>   0.0720 
 43 H      -12.8470     1.4270     1.8830 H     1 <1>   0.0720 
 44 H      -13.5340     0.4950    -0.2790 H     1 <1>   0.0720 
 45 H      -12.9550     1.9530    -1.1040 H     1 <1>   0.0720 
 46 H      -16.4260     2.4930    -0.6350 H     1 <1>   0.0720 
 47 H      -15.7350     0.9150    -0.9960 H     1 <1>   0.0720 
 48 H      -15.1700     2.3550    -1.8600 H     1 <1>   0.0720 
@<TRIPOS>BOND
  1   1   2  1   
  2   2   3  ar  
  3   2   4  ar  
  4   3   5  ar  
  5   3  28  1   
  6   4   6  ar  
  7   4  29  1   
  8   5   7  1   
  9   5   8  ar  
 10   6   8  ar  
 11   6  30  1   
 12   7   9  ar  
 13   7  10  1   
 14   8  31  1   
 15   9  11  ar  
 16   9  12  ar  
 17  10  13  1   
 18  10  32  1   
 19  10  33  1   
 20  11  14  1   
 21  11  34  1   
 22  12  15  1   
 23  12  16  1   
 24  13  16  1   
 25  13  35  1   
 26  13  36  1   
 27  14  15  2   
 28  14  17  1   
 29  15  18  1   
 30  16  37  1   
 31  16  38  1   
 32  17  19  am  
 33  17  20  1   
 34  18  21  2   
 35  18  22  am  
 36  19  22  am  
 37  19  23  2   
 38  20  39  1   
 39  20  40  1   
 40  20  41  1   
 41  22  24  1   
 42  24  25  1   
 43  24  42  1   
 44  24  43  1   
 45  25  26  1   
 46  25  44  1   
 47  25  45  1   
 48  26  27  1   
 49  27  46  1   
 50  27  47  1   
 51  27  48  1   
@<TRIPOS>SUBSTRUCTURE
  1 ****  14 GROUP 4 **** **** 0

# MOE 2024.06 (io_trps.svl 2023.06)
