@<TRIPOS>MOLECULE
{2-Chloro-6-ethoxy-4-[2-methyl-5-oxo-oxazol-(4E)-ylidenemethyl]-phenoxy}-acetic
40 41 1 0 0 
SMALL
USER_CHARGES


@<TRIPOS>ATOM
  1 CL      -0.5450    -0.5090    -1.5470 Cl    1 <1>  -0.1770 
  2 C        0.5700    -1.6210    -0.7830 C.ar  1 <1>   0.1770 
  3 C        1.7960    -1.1650    -0.3180 C.ar  1 <1>   0.0830 
  4 C        0.1930    -2.9420    -0.6530 C.ar  1 <1>  -0.1500 
  5 O        2.1380     0.1360    -0.4810 O.3   1 <1>  -0.3630 
  6 C        2.6510    -2.0890     0.2870 C.ar  1 <1>   0.0830 
  7 C        1.0400    -3.8730    -0.0510 C.ar  1 <1>   0.0280 
  8 C        2.3220     0.9270     0.6850 C.3   1 <1>   0.1810 
  9 O        3.8690    -1.7310     0.7550 O.3   1 <1>  -0.3620 
 10 C        2.2660    -3.4100     0.4280 C.ar  1 <1>  -0.1500 
 11 C        0.6310    -5.2410     0.0650 C.2   1 <1>  -0.1780 
 12 C        3.2000     2.1340     0.3920 C.2   1 <1>   0.6590 
 13 C        4.8700    -1.5630    -0.2220 C.3   1 <1>   0.1200 
 14 C        1.3590    -6.3820    -0.0710 C.2   1 <1>   0.1850 
 15 O        2.8080     3.2600     0.5740 O.2   1 <1>  -0.5700 
 16 O        4.4300     1.8810    -0.0470 O.3   1 <1>  -0.4300 
 17 C        6.1640    -1.1770     0.4880 C.3   1 <1>  -0.2400 
 18 N        0.7910    -7.6250     0.1160 N.2   1 <1>  -0.6210 
 19 C        2.7300    -6.6320    -0.4190 C.2   1 <1>   0.7060 
 20 C        5.3390     2.9170    -0.3520 C.3   1 <1>   0.0400 
 21 C        1.7280    -8.4530    -0.0890 C.2   1 <1>   0.5390 
 22 O        3.6400    -5.8820    -0.7040 O.2   1 <1>  -0.5700 
 23 O        2.9080    -7.9380    -0.4080 O.3   1 <1>  -0.3000 
 24 C        1.6300    -9.9560    -0.0090 C.3   1 <1>  -0.1790 
 25 H       -0.7650    -3.2520    -1.0280 H     1 <1>   0.1500 
 26 H        1.3540     1.2540     1.0170 H     1 <1>   0.0800 
 27 H        2.7820     0.3390     1.4550 H     1 <1>   0.0800 
 28 H        2.9420    -4.0830     0.9220 H     1 <1>   0.1500 
 29 H       -0.4160    -5.3610     0.2820 H     1 <1>   0.1500 
 30 H        4.9850    -2.4920    -0.7540 H     1 <1>   0.0800 
 31 H        4.5630    -0.7880    -0.9040 H     1 <1>   0.0800 
 32 H        6.4560    -1.9540     1.1710 H     1 <1>   0.0800 
 33 H        6.0290    -0.2550     1.0250 H     1 <1>   0.0800 
 34 H        6.9470    -1.0420    -0.2350 H     1 <1>   0.0800 
 35 H        6.2590     2.4750    -0.6880 H     1 <1>   0.0800 
 36 H        5.5090     3.5030     0.5350 H     1 <1>   0.0800 
 37 H        4.9160     3.5330    -1.1270 H     1 <1>   0.0800 
 38 H        2.3100   -10.3240     0.7380 H     1 <1>   0.0800 
 39 H        1.8810   -10.3870    -0.9600 H     1 <1>   0.0800 
 40 H        0.6290   -10.2430     0.2550 H     1 <1>   0.0800 
@<TRIPOS>BOND
  1   1   2  1   
  2   2   3  ar  
  3   2   4  ar  
  4   3   5  1   
  5   3   6  ar  
  6   4   7  ar  
  7   4  25  1   
  8   5   8  1   
  9   6   9  1   
 10   6  10  ar  
 11   7  10  ar  
 12   7  11  1   
 13   8  12  1   
 14   8  26  1   
 15   8  27  1   
 16   9  13  1   
 17  10  28  1   
 18  11  14  2   
 19  11  29  1   
 20  12  15  2   
 21  12  16  1   
 22  13  17  1   
 23  13  30  1   
 24  13  31  1   
 25  14  18  1   
 26  14  19  1   
 27  16  20  1   
 28  17  32  1   
 29  17  33  1   
 30  17  34  1   
 31  18  21  2   
 32  19  22  2   
 33  19  23  1   
 34  20  35  1   
 35  20  36  1   
 36  20  37  1   
 37  21  23  1   
 38  21  24  1   
 39  24  38  1   
 40  24  39  1   
 41  24  40  1   
@<TRIPOS>SUBSTRUCTURE
  1 ****   6 GROUP 4 **** **** 0

# MOE 2024.06 (io_trps.svl 2023.06)
