@<TRIPOS>MOLECULE
2-(4-Ethoxy-benzylamino)-5-propyl-4H-[1,2,4]triazolo[1,5-a]pyrimidin-7-one
45 47 1 0 0 
SMALL
USER_CHARGES


@<TRIPOS>ATOM
  1 O       -1.9270     0.6680     0.3370 O.2   1 <1>  -0.5700 
  2 C       -2.3430    -0.4550     0.0850 C.2   1 <1>   0.5650 
  3 N       -3.6050    -0.6870    -0.5100 N.pl3 1 <1>   0.5610 
  4 C       -1.5560    -1.6060     0.3940 C.2   1 <1>  -0.1360 
  5 N       -4.5990     0.1410    -0.9220 N.2   1 <1>  -0.7070 
  6 C       -4.0220    -1.9560    -0.7520 C.2   1 <1>   0.2700 
  7 C       -1.9900    -2.8690     0.1390 C.2   1 <1>  -0.0380 
  8 C       -5.4670    -0.6890    -1.3640 C.2   1 <1>   0.5990 
  9 N       -5.1860    -1.9960    -1.2800 N.2   1 <1>  -0.5650 
 10 N       -3.2280    -3.0480    -0.4360 N.pl3 1 <1>  -0.5840 
 11 C       -1.1770    -4.1150     0.4540 C.3   1 <1>  -0.0220 
 12 N       -6.6370    -0.2390    -1.8920 N.pl3 1 <1>  -0.8520 
 13 C       -1.8120    -4.9200     1.5950 C.3   1 <1>  -0.1600 
 14 C       -7.8530    -0.7510    -1.2420 C.3   1 <1>   0.3530 
 15 C       -0.9820    -6.1640     1.9330 C.3   1 <1>  -0.2400 
 16 C       -8.6000     0.4280    -0.6440 C.ar  1 <1>  -0.1430 
 17 C       -9.8090     0.8480    -1.1790 C.ar  1 <1>  -0.1500 
 18 C       -8.0710     1.1020     0.4470 C.ar  1 <1>  -0.1500 
 19 C      -10.4870     1.9230    -0.6280 C.ar  1 <1>  -0.1500 
 20 C       -8.7460     2.1770     0.9980 C.ar  1 <1>  -0.1500 
 21 C       -9.9550     2.5940     0.4690 C.ar  1 <1>   0.0830 
 22 O      -10.5510     3.6540     1.0700 O.3   1 <1>  -0.3630 
 23 C      -11.7720     4.1730     0.5980 C.3   1 <1>   0.1200 
 24 C      -12.1550     5.3560     1.4820 C.3   1 <1>  -0.2400 
 25 H       -0.5990    -1.4110     0.8410 H     1 <1>   0.1500 
 26 H       -3.6070    -3.9760    -0.6580 H     1 <1>   0.4000 
 27 H       -0.1780    -3.8310     0.7360 H     1 <1>   0.0800 
 28 H       -1.1050    -4.7240    -0.4300 H     1 <1>   0.0800 
 29 H       -6.6270     0.7780    -1.7830 H     1 <1>   0.4000 
 30 H       -2.8060    -5.2250     1.3180 H     1 <1>   0.0800 
 31 H       -1.8900    -4.2970     2.4700 H     1 <1>   0.0800 
 32 H       -7.6120    -1.4580    -0.4650 H     1 <1>   0.0800 
 33 H       -8.4590    -1.2520    -1.9770 H     1 <1>   0.0800 
 34 H       -0.9080    -6.8130     1.0780 H     1 <1>   0.0800 
 35 H       -1.4470    -6.7090     2.7350 H     1 <1>   0.0800 
 36 H        0.0100    -5.8840     2.2430 H     1 <1>   0.0800 
 37 H      -10.2290     0.3390    -2.0300 H     1 <1>   0.1500 
 38 H       -7.1280     0.7950     0.8680 H     1 <1>   0.1500 
 39 H      -11.4200     2.2200    -1.0660 H     1 <1>   0.1500 
 40 H       -8.3360     2.7000     1.8430 H     1 <1>   0.1500 
 41 H      -12.5160     3.3980     0.6560 H     1 <1>   0.0800 
 42 H      -11.6360     4.4880    -0.4220 H     1 <1>   0.0800 
 43 H      -12.2710     5.0330     2.5010 H     1 <1>   0.0800 
 44 H      -13.0860     5.7760     1.1460 H     1 <1>   0.0800 
 45 H      -11.3960     6.1160     1.4300 H     1 <1>   0.0800 
@<TRIPOS>BOND
  1   1   2  2   
  2   2   3  1   
  3   2   4  1   
  4   3   5  1   
  5   3   6  1   
  6   4   7  2   
  7   4  25  1   
  8   5   8  2   
  9   6   9  2   
 10   6  10  1   
 11   7  10  1   
 12   7  11  1   
 13   8   9  1   
 14   8  12  1   
 15  10  26  1   
 16  11  13  1   
 17  11  27  1   
 18  11  28  1   
 19  12  14  1   
 20  12  29  1   
 21  13  15  1   
 22  13  30  1   
 23  13  31  1   
 24  14  16  1   
 25  14  32  1   
 26  14  33  1   
 27  15  34  1   
 28  15  35  1   
 29  15  36  1   
 30  16  17  ar  
 31  16  18  ar  
 32  17  19  ar  
 33  17  37  1   
 34  18  20  ar  
 35  18  38  1   
 36  19  21  ar  
 37  19  39  1   
 38  20  21  ar  
 39  20  40  1   
 40  21  22  1   
 41  22  23  1   
 42  23  24  1   
 43  23  41  1   
 44  23  42  1   
 45  24  43  1   
 46  24  44  1   
 47  24  45  1   
@<TRIPOS>SUBSTRUCTURE
  1 ****   8 GROUP 4 **** **** 0

# MOE 2024.06 (io_trps.svl 2023.06)
