@<TRIPOS>MOLECULE
[1-(3-Chloro-4-methoxy-benzenesulfonyl)-piperidin-4-yl]-morpholin-4-yl-methanone
49 51 1 0 0 
SMALL
USER_CHARGES


@<TRIPOS>ATOM
  1 CL       2.4640    -0.7650     3.1340 Cl    1 <1>  -0.1770 
  2 C        2.4420    -0.3330     1.4380 C.ar  1 <1>   0.1770 
  3 C        1.6520    -1.0430     0.5420 C.ar  1 <1>   0.0830 
  4 C        3.2290     0.7250     1.0260 C.ar  1 <1>  -0.1500 
  5 O        0.9030    -2.0740     1.0130 O.3   1 <1>  -0.3630 
  6 C        1.6700    -0.6610    -0.7960 C.ar  1 <1>  -0.1500 
  7 C        3.2570     1.1090    -0.3090 C.ar  1 <1>  -0.0090 
  8 C        0.0550    -2.8240     0.1710 C.3   1 <1>   0.0400 
  9 C        2.4620     0.4010    -1.2050 C.ar  1 <1>  -0.1500 
 10 S        4.2910     2.4960    -0.8560 S.o2  1 <1>   1.4470 
 11 O        4.5230     2.4070    -2.2820 O.2   1 <1>  -0.6500 
 12 O        3.7640     3.7210    -0.2970 O.2   1 <1>  -0.6500 
 13 N        5.7780     2.1820    -0.1020 N.am  1 <1>  -0.8490 
 14 C        6.6090     3.3880    -0.0290 C.3   1 <1>   0.1960 
 15 C        6.4940     1.0700    -0.7350 C.3   1 <1>   0.1960 
 16 C        7.8720     3.1110     0.7900 C.3   1 <1>  -0.1600 
 17 C        7.7480     0.7190     0.0680 C.3   1 <1>  -0.1600 
 18 C        8.6800     1.9350     0.2060 C.3   1 <1>  -0.0190 
 19 C        9.9230     1.5920     1.0390 C.2   1 <1>   0.5690 
 20 O        9.8680     1.7680     2.2340 O.2   1 <1>  -0.5700 
 21 N       11.0620     1.0960     0.4500 N.am  1 <1>  -0.6600 
 22 C       11.2260     0.6990    -0.9830 C.3   1 <1>   0.1400 
 23 C       12.3110     0.8830     1.2490 C.3   1 <1>   0.1400 
 24 C       11.8700    -0.6940    -1.0960 C.3   1 <1>   0.1200 
 25 C       12.8860    -0.5210     1.0070 C.3   1 <1>   0.1200 
 26 O       13.0580    -0.7540    -0.3620 O.3   1 <1>  -0.5600 
 27 H        3.8260     1.2520     1.7500 H     1 <1>   0.1500 
 28 H        1.0770    -1.1730    -1.5310 H     1 <1>   0.1500 
 29 H       -0.4350    -3.5690     0.7720 H     1 <1>   0.0800 
 30 H        0.6480    -3.3010    -0.5880 H     1 <1>   0.0800 
 31 H       -0.6770    -2.1670    -0.2640 H     1 <1>   0.0800 
 32 H        2.4640     0.6860    -2.2450 H     1 <1>   0.1500 
 33 H        6.0600     4.1810     0.4520 H     1 <1>   0.0800 
 34 H        6.8690     3.7150    -1.0230 H     1 <1>   0.0800 
 35 H        6.7680     1.3360    -1.7430 H     1 <1>   0.0800 
 36 H        5.8540     0.2040    -0.7780 H     1 <1>   0.0800 
 37 H        7.5800     2.8920     1.8030 H     1 <1>   0.0800 
 38 H        8.4850     3.9940     0.8130 H     1 <1>   0.0800 
 39 H        8.2670    -0.0880    -0.4160 H     1 <1>   0.0800 
 40 H        7.4540     0.3770     1.0460 H     1 <1>   0.0800 
 41 H        9.0000     2.2430    -0.7710 H     1 <1>   0.0800 
 42 H       11.8570     1.4170    -1.4770 H     1 <1>   0.0800 
 43 H       10.2820     0.6780    -1.4930 H     1 <1>   0.0800 
 44 H       12.1200     1.0050     2.3010 H     1 <1>   0.0800 
 45 H       13.0430     1.6180     0.9630 H     1 <1>   0.0800 
 46 H       12.1100    -0.9110    -2.1220 H     1 <1>   0.0800 
 47 H       11.2010    -1.4530    -0.7290 H     1 <1>   0.0800 
 48 H       12.2300    -1.2730     1.4090 H     1 <1>   0.0800 
 49 H       13.8480    -0.6130     1.4800 H     1 <1>   0.0800 
@<TRIPOS>BOND
  1   1   2  1   
  2   2   3  ar  
  3   2   4  ar  
  4   3   5  1   
  5   3   6  ar  
  6   4   7  ar  
  7   4  27  1   
  8   5   8  1   
  9   6   9  ar  
 10   6  28  1   
 11   7   9  ar  
 12   7  10  1   
 13   8  29  1   
 14   8  30  1   
 15   8  31  1   
 16   9  32  1   
 17  10  11  2   
 18  10  12  2   
 19  10  13  am  
 20  13  14  1   
 21  13  15  1   
 22  14  16  1   
 23  14  33  1   
 24  14  34  1   
 25  15  17  1   
 26  15  35  1   
 27  15  36  1   
 28  16  18  1   
 29  16  37  1   
 30  16  38  1   
 31  17  18  1   
 32  17  39  1   
 33  17  40  1   
 34  18  19  1   
 35  18  41  1   
 36  19  20  2   
 37  19  21  am  
 38  21  22  1   
 39  21  23  1   
 40  22  24  1   
 41  22  42  1   
 42  22  43  1   
 43  23  25  1   
 44  23  44  1   
 45  23  45  1   
 46  24  26  1   
 47  24  46  1   
 48  24  47  1   
 49  25  26  1   
 50  25  48  1   
 51  25  49  1   
@<TRIPOS>SUBSTRUCTURE
  1 ****  15 GROUP 4 **** **** 0

# MOE 2024.06 (io_trps.svl 2023.06)
