@<TRIPOS>MOLECULE
3-(3-Hydroxy-quinoxalin-2-yl)-propionic acid 3,3-dimethyl-2-oxo-butyl ester
43 44 1 0 0 
SMALL
USER_CHARGES


@<TRIPOS>ATOM
  1 O       -0.3160    -0.0480     1.9100 O.2   1 <1>  -0.5700 
  2 C       -1.0650    -0.4160     1.0450 C.2   1 <1>   0.6590 
  3 O       -0.7180    -1.3420     0.1640 O.3   1 <1>  -0.4300 
  4 C       -2.4560     0.1580     0.8940 C.3   1 <1>  -0.0990 
  5 C        0.5800    -1.9140     0.1860 C.3   1 <1>   0.1810 
  6 C       -2.5470     1.1280    -0.3010 C.3   1 <1>  -0.0990 
  7 C        0.7050    -3.0390    -0.8350 C.2   1 <1>   0.4480 
  8 C       -3.9220     1.7690    -0.5030 C.2   1 <1>   0.3890 
  9 O        1.2430    -2.8250    -1.8840 O.2   1 <1>  -0.5700 
 10 C        0.1700    -4.4440    -0.4560 C.3   1 <1>   0.0610 
 11 N       -4.9080     1.4030     0.2420 N.2   1 <1>  -0.6290 
 12 C       -4.0280     2.7700    -1.5510 C.2   1 <1>   0.6300 
 13 C        1.0680    -5.0820     0.6190 C.3   1 <1>  -0.2400 
 14 C       -1.2740    -4.3850     0.0790 C.3   1 <1>  -0.2400 
 15 C        0.1690    -5.3790    -1.6830 C.3   1 <1>  -0.2400 
 16 C       -6.1420     2.0080     0.0270 C.ar  1 <1>   0.1790 
 17 O       -3.1050     3.1250    -2.2670 O.2   1 <1>  -0.5700 
 18 N       -5.2420     3.3550    -1.7510 N.am  1 <1>  -0.5470 
 19 C       -6.3280     2.9880    -0.9670 C.ar  1 <1>   0.1170 
 20 C       -7.2270     1.6400     0.8140 C.ar  1 <1>  -0.1500 
 21 C       -7.5820     3.5660    -1.1450 C.ar  1 <1>  -0.1500 
 22 C       -8.4670     2.2190     0.6300 C.ar  1 <1>  -0.1500 
 23 C       -8.6440     3.1840    -0.3520 C.ar  1 <1>  -0.1500 
 24 H       -2.7120     0.6760     1.8010 H     1 <1>   0.0800 
 25 H       -3.1500    -0.6530     0.7660 H     1 <1>   0.0800 
 26 H        0.7800    -2.2770     1.1780 H     1 <1>   0.0800 
 27 H        1.2850    -1.1370    -0.0500 H     1 <1>   0.0800 
 28 H       -2.2860     0.6030    -1.2030 H     1 <1>   0.0800 
 29 H       -1.8260     1.9150    -0.1620 H     1 <1>   0.0800 
 30 H        1.0480    -4.5150     1.5320 H     1 <1>   0.0800 
 31 H        2.0850    -5.1320     0.2710 H     1 <1>   0.0800 
 32 H        0.7390    -6.0820     0.8420 H     1 <1>   0.0800 
 33 H       -1.3260    -3.8330     1.0000 H     1 <1>   0.0800 
 34 H       -1.6500    -5.3750     0.2660 H     1 <1>   0.0800 
 35 H       -1.9170    -3.9090    -0.6410 H     1 <1>   0.0800 
 36 H        1.1670    -5.4880    -2.0730 H     1 <1>   0.0800 
 37 H       -0.4490    -4.9700    -2.4630 H     1 <1>   0.0800 
 38 H       -0.2030    -6.3550    -1.4280 H     1 <1>   0.0800 
 39 H       -5.3050     4.0560    -2.4870 H     1 <1>   0.3700 
 40 H       -7.0820     0.8930     1.5730 H     1 <1>   0.1500 
 41 H       -7.7210     4.3140    -1.9050 H     1 <1>   0.1500 
 42 H       -9.2990     1.9240     1.2470 H     1 <1>   0.1500 
 43 H       -9.6140     3.6310    -0.4900 H     1 <1>   0.1500 
@<TRIPOS>BOND
  1   1   2  2   
  2   2   3  1   
  3   2   4  1   
  4   3   5  1   
  5   4   6  1   
  6   4  24  1   
  7   4  25  1   
  8   5   7  1   
  9   5  26  1   
 10   5  27  1   
 11   6   8  1   
 12   6  28  1   
 13   6  29  1   
 14   7   9  2   
 15   7  10  1   
 16   8  11  2   
 17   8  12  1   
 18  10  13  1   
 19  10  14  1   
 20  10  15  1   
 21  11  16  1   
 22  12  17  2   
 23  12  18  am  
 24  13  30  1   
 25  13  31  1   
 26  13  32  1   
 27  14  33  1   
 28  14  34  1   
 29  14  35  1   
 30  15  36  1   
 31  15  37  1   
 32  15  38  1   
 33  16  19  ar  
 34  16  20  ar  
 35  18  19  1   
 36  18  39  1   
 37  19  21  ar  
 38  20  22  ar  
 39  20  40  1   
 40  21  23  ar  
 41  21  41  1   
 42  22  23  ar  
 43  22  42  1   
 44  23  43  1   
@<TRIPOS>SUBSTRUCTURE
  1 ****   6 GROUP 4 **** **** 0

# MOE 2024.06 (io_trps.svl 2023.06)
