@<TRIPOS>MOLECULE
Pyrrolidine-1-carboxylic acid (4-hydroxy-8-methyl-quinolin-3-yl)-amide
37 39 1 0 0 
SMALL
USER_CHARGES


@<TRIPOS>ATOM
  1 O       -0.3150     0.1560    -0.0060 O.2   1 <1>  -0.5700 
  2 C       -0.1310     1.3590     0.0270 C.2   1 <1>   0.6900 
  3 N       -1.1980     2.2150     0.0400 N.am  1 <1>  -0.6600 
  4 N        1.1240     1.8840     0.0500 N.am  1 <1>  -0.5390 
  5 C       -1.1380     3.6910     0.1330 C.3   1 <1>   0.1400 
  6 C       -2.5940     1.7370    -0.0200 C.3   1 <1>   0.1400 
  7 C        2.4250     1.3090     0.0550 C.2   1 <1>   0.1230 
  8 C       -2.5820     4.1210     0.3700 C.3   1 <1>  -0.1600 
  9 C       -3.4260     2.9980    -0.2290 C.3   1 <1>  -0.1600 
 10 C        3.5310     2.2210     0.0650 C.2   1 <1>   0.4690 
 11 C        2.6670    -0.0310     0.0520 C.2   1 <1>  -0.0500 
 12 O        3.3230     3.4350     0.0700 O.2   1 <1>  -0.5700 
 13 C        4.8740     1.6970     0.0690 C.ar  1 <1>   0.0860 
 14 N        3.9560    -0.5240     0.0570 N.pl3 1 <1>  -0.6000 
 15 C        5.0690     0.3040     0.0650 C.ar  1 <1>   0.1000 
 16 C        6.0030     2.5240     0.0780 C.ar  1 <1>  -0.1500 
 17 C        6.3660    -0.2270     0.0690 C.ar  1 <1>  -0.1440 
 18 C        7.2740     1.9970     0.0820 C.ar  1 <1>  -0.1500 
 19 C        7.4540     0.6200     0.0780 C.ar  1 <1>  -0.1500 
 20 C        6.5930    -1.7340     0.0650 C.3   1 <1>  -0.0970 
 21 H        1.1520     2.9020     0.0510 H     1 <1>   0.3700 
 22 H       -0.7770     4.0880    -0.8000 H     1 <1>   0.0800 
 23 H       -0.4990     4.0040     0.9410 H     1 <1>   0.0800 
 24 H       -2.8430     1.2660     0.9150 H     1 <1>   0.0800 
 25 H       -2.7240     1.0330    -0.8250 H     1 <1>   0.0800 
 26 H       -2.7930     5.0760    -0.0760 H     1 <1>   0.0800 
 27 H       -2.7570     4.1820     1.4300 H     1 <1>   0.0800 
 28 H       -4.3940     2.9190     0.2330 H     1 <1>   0.0800 
 29 H       -3.5530     3.1590    -1.2850 H     1 <1>   0.0800 
 30 H        1.8700    -0.7550     0.0450 H     1 <1>   0.1500 
 31 H        4.1080    -1.5380     0.0530 H     1 <1>   0.4000 
 32 H        5.8650     3.5920     0.0810 H     1 <1>   0.1500 
 33 H        8.1330     2.6470     0.0880 H     1 <1>   0.1500 
 34 H        8.4570     0.2290     0.0810 H     1 <1>   0.1500 
 35 H        6.1470    -2.1750     0.9380 H     1 <1>   0.0800 
 36 H        7.6430    -1.9650     0.0690 H     1 <1>   0.0800 
 37 H        6.1550    -2.1690    -0.8160 H     1 <1>   0.0800 
@<TRIPOS>BOND
  1   1   2  2   
  2   2   3  am  
  3   2   4  am  
  4   3   5  1   
  5   3   6  1   
  6   4   7  1   
  7   4  21  1   
  8   5   8  1   
  9   5  22  1   
 10   5  23  1   
 11   6   9  1   
 12   6  24  1   
 13   6  25  1   
 14   7  10  1   
 15   7  11  2   
 16   8   9  1   
 17   8  26  1   
 18   8  27  1   
 19   9  28  1   
 20   9  29  1   
 21  10  12  2   
 22  10  13  1   
 23  11  14  1   
 24  11  30  1   
 25  13  15  ar  
 26  13  16  ar  
 27  14  15  1   
 28  14  31  1   
 29  15  17  ar  
 30  16  18  ar  
 31  16  32  1   
 32  17  19  ar  
 33  17  20  1   
 34  18  19  ar  
 35  18  33  1   
 36  19  34  1   
 37  20  35  1   
 38  20  36  1   
 39  20  37  1   
@<TRIPOS>SUBSTRUCTURE
  1 ****   7 GROUP 4 **** **** 0

# MOE 2024.06 (io_trps.svl 2023.06)
