@<TRIPOS>MOLECULE
3-(4-Methoxy-phenoxymethyl)-piperidine
36 37 1 0 0 
SMALL
USER_CHARGES


@<TRIPOS>ATOM
  1 O       -0.0720     0.4600     0.3890 O.3   1 <1>  -0.3630 
  2 C        1.1440     1.0330     0.1890 C.ar  1 <1>   0.0830 
  3 C       -1.2590     1.1620     0.0990 C.3   1 <1>   0.1200 
  4 C        1.3210     2.3240    -0.3030 C.ar  1 <1>  -0.1500 
  5 C        2.2550     0.2630     0.4980 C.ar  1 <1>  -0.1500 
  6 C       -2.4410     0.2330     0.3960 C.3   1 <1>  -0.0800 
  7 C        2.5990     2.8230    -0.4820 C.ar  1 <1>  -0.1500 
  8 C        3.5320     0.7640     0.3190 C.ar  1 <1>  -0.1500 
  9 C       -2.2140    -1.1350    -0.2640 C.3   1 <1>   0.3430 
 10 C       -3.7630     0.8650    -0.0750 C.3   1 <1>  -0.1600 
 11 C        3.7100     2.0530    -0.1760 C.ar  1 <1>   0.0830 
 12 N       -3.3850    -2.0280    -0.0250 N.4   1 <1>  -0.9060 
 13 C       -4.9330    -0.1130     0.1150 C.3   1 <1>  -0.1600 
 14 O        4.9240     2.6250    -0.3840 O.3   1 <1>  -0.3630 
 15 C       -4.6600    -1.4660    -0.5480 C.3   1 <1>   0.3430 
 16 C        6.1160     1.9300    -0.0910 C.3   1 <1>   0.0400 
 17 H       -1.2370     1.4420    -0.9400 H     1 <1>   0.0800 
 18 H       -1.2960     2.0430     0.7180 H     1 <1>   0.0800 
 19 H        0.4910     2.9560    -0.5510 H     1 <1>   0.1500 
 20 H        2.1170    -0.7310     0.8820 H     1 <1>   0.1500 
 21 H       -2.4810     0.0980     1.4630 H     1 <1>   0.0800 
 22 H        2.7470     3.8180    -0.8620 H     1 <1>   0.1500 
 23 H        4.3700     0.1420     0.5690 H     1 <1>   0.1500 
 24 H       -1.3190    -1.5820     0.1410 H     1 <1>   0.0800 
 25 H       -2.0680    -0.9990    -1.3240 H     1 <1>   0.0800 
 26 H       -3.6910     1.1310    -1.1170 H     1 <1>   0.0800 
 27 H       -3.9560     1.7690     0.4800 H     1 <1>   0.0800 
 28 H       -3.4790    -2.1790     0.9870 H     1 <1>   0.4500 
 29 H       -3.2080    -2.9480    -0.4500 H     1 <1>   0.4500 
 30 H       -5.8240     0.3130    -0.3140 H     1 <1>   0.0800 
 31 H       -5.1230    -0.2600     1.1640 H     1 <1>   0.0800 
 32 H       -5.4760    -2.1420    -0.3440 H     1 <1>   0.0800 
 33 H       -4.5890    -1.3340    -1.6160 H     1 <1>   0.0800 
 34 H        6.9440     2.5730    -0.3280 H     1 <1>   0.0800 
 35 H        6.1590     1.0410    -0.6960 H     1 <1>   0.0800 
 36 H        6.1300     1.6860     0.9560 H     1 <1>   0.0800 
@<TRIPOS>BOND
  1   1   2  1   
  2   1   3  1   
  3   2   4  ar  
  4   2   5  ar  
  5   3   6  1   
  6   3  17  1   
  7   3  18  1   
  8   4   7  ar  
  9   4  19  1   
 10   5   8  ar  
 11   5  20  1   
 12   6   9  1   
 13   6  10  1   
 14   6  21  1   
 15   7  11  ar  
 16   7  22  1   
 17   8  11  ar  
 18   8  23  1   
 19   9  12  1   
 20   9  24  1   
 21   9  25  1   
 22  10  13  1   
 23  10  26  1   
 24  10  27  1   
 25  11  14  1   
 26  12  15  1   
 27  12  28  1   
 28  12  29  1   
 29  13  15  1   
 30  13  30  1   
 31  13  31  1   
 32  14  16  1   
 33  15  32  1   
 34  15  33  1   
 35  16  34  1   
 36  16  35  1   
 37  16  36  1   
@<TRIPOS>SUBSTRUCTURE
  1 ****   1 GROUP 4 **** **** 0

# MOE 2024.06 (io_trps.svl 2023.06)
