@<TRIPOS>MOLECULE
8-(2-Ethyl-piperidin-1-ylmethyl)-7-(2-methoxy-ethyl)-1,3-dimethyl-3,7-dihydro-pu
56 58 1 0 0 
SMALL
USER_CHARGES


@<TRIPOS>ATOM
  1 O        0.3980     0.6200    -2.0430 O.2   1 <1>  -0.5700 
  2 C        1.2910     1.1680    -1.4290 C.2   1 <1>   0.6900 
  3 N        0.9940     2.2110    -0.5570 N.am  1 <1>  -0.4200 
  4 N        2.6020     0.7500    -1.5950 N.am  1 <1>  -0.4360 
  5 C        1.9850     2.8140     0.2070 C.2   1 <1>   0.7030 
  6 C       -0.4290     2.6550    -0.4230 C.3   1 <1>   0.0600 
  7 C        3.5790     1.3560    -0.8280 C.2   1 <1>   0.4260 
  8 C        2.9520    -0.3500    -2.5420 C.3   1 <1>   0.0600 
  9 O        1.7130     3.7220     0.9760 O.2   1 <1>  -0.5700 
 10 C        3.3330     2.3450     0.0640 C.2   1 <1>   0.2770 
 11 N        4.9080     1.0980    -0.8140 N.pl3 1 <1>  -0.7000 
 12 N        4.5630     2.6750     0.6450 N.pl3 1 <1>  -0.7640 
 13 C        5.4830     1.9070     0.0660 C.cat 1 <1>   0.6560 
 14 C        4.7640     3.7360     1.6790 C.3   1 <1>   0.3540 
 15 C        7.0010     1.8670     0.3060 C.3   1 <1>   0.2540 
 16 C        5.1910     5.0650     1.0420 C.3   1 <1>   0.1200 
 17 N        7.5880     0.5710    -0.1590 N.3   1 <1>  -0.8100 
 18 O        6.3610     4.8750     0.3000 O.3   1 <1>  -0.5600 
 19 C        7.7670    -0.4370     0.9230 C.3   1 <1>   0.1900 
 20 C        8.8590     0.8370    -0.8620 C.3   1 <1>   0.1100 
 21 C        6.8310     6.0360    -0.3130 C.3   1 <1>   0.0400 
 22 C        8.3100    -1.7460     0.3120 C.3   1 <1>  -0.1600 
 23 C        6.4410    -0.7050     1.6740 C.3   1 <1>  -0.1600 
 24 C        9.3770    -0.4340    -1.5310 C.3   1 <1>  -0.1600 
 25 C        9.5930    -1.5340    -0.4950 C.3   1 <1>  -0.1600 
 26 C        6.5590    -1.7270     2.8150 C.3   1 <1>  -0.2400 
 27 H       -0.9140     2.6410    -1.3850 H     1 <1>   0.0800 
 28 H       -0.4890     3.6560    -0.0310 H     1 <1>   0.0800 
 29 H       -0.9540     1.9870     0.2380 H     1 <1>   0.0800 
 30 H        2.1630    -0.4990    -3.2610 H     1 <1>   0.0800 
 31 H        3.0970    -1.2660    -1.9970 H     1 <1>   0.0800 
 32 H        3.8510    -0.1060    -3.0790 H     1 <1>   0.0800 
 33 H        5.4660     0.4040    -1.3220 H     1 <1>   0.4500 
 34 H        5.5220     3.4250     2.3770 H     1 <1>   0.0800 
 35 H        3.8560     3.8830     2.2380 H     1 <1>   0.0800 
 36 H        7.2260     2.0340     1.3440 H     1 <1>   0.0800 
 37 H        7.4240     2.6830    -0.2500 H     1 <1>   0.0800 
 38 H        5.3840     5.7950     1.8090 H     1 <1>   0.0800 
 39 H        4.4160     5.4290     0.3890 H     1 <1>   0.0800 
 40 H        8.4930    -0.0650     1.6280 H     1 <1>   0.0800 
 41 H        9.5950     1.2090    -0.1670 H     1 <1>   0.0800 
 42 H        8.7080     1.5820    -1.6260 H     1 <1>   0.0800 
 43 H        7.7270     5.7920    -0.8580 H     1 <1>   0.0800 
 44 H        7.0580     6.7720     0.4390 H     1 <1>   0.0800 
 45 H        6.0850     6.4090    -0.9940 H     1 <1>   0.0800 
 46 H        7.5560    -2.1780    -0.3220 H     1 <1>   0.0800 
 47 H        8.5280    -2.4540     1.0910 H     1 <1>   0.0800 
 48 H        5.6990    -1.0540     0.9780 H     1 <1>   0.0800 
 49 H        6.0870     0.2020     2.1260 H     1 <1>   0.0800 
 50 H       10.3070    -0.2230    -2.0310 H     1 <1>   0.0800 
 51 H        8.6690    -0.7590    -2.2730 H     1 <1>   0.0800 
 52 H        9.8760    -2.4510    -0.9840 H     1 <1>   0.0800 
 53 H       10.3920    -1.2500     0.1700 H     1 <1>   0.0800 
 54 H        6.7310    -2.7180     2.4350 H     1 <1>   0.0800 
 55 H        5.6440    -1.7490     3.3820 H     1 <1>   0.0800 
 56 H        7.3620    -1.4630     3.4800 H     1 <1>   0.0800 
@<TRIPOS>BOND
  1   1   2  2   
  2   2   3  am  
  3   2   4  am  
  4   3   5  am  
  5   3   6  1   
  6   4   7  1   
  7   4   8  1   
  8   5   9  2   
  9   5  10  1   
 10   6  27  1   
 11   6  28  1   
 12   6  29  1   
 13   7  10  2   
 14   7  11  1   
 15   8  30  1   
 16   8  31  1   
 17   8  32  1   
 18  10  12  1   
 19  11  13  ar  
 20  11  33  1   
 21  12  13  ar  
 22  12  14  1   
 23  13  15  1   
 24  14  16  1   
 25  14  34  1   
 26  14  35  1   
 27  15  17  1   
 28  15  36  1   
 29  15  37  1   
 30  16  18  1   
 31  16  38  1   
 32  16  39  1   
 33  17  19  1   
 34  17  20  1   
 35  18  21  1   
 36  19  22  1   
 37  19  23  1   
 38  19  40  1   
 39  20  24  1   
 40  20  41  1   
 41  20  42  1   
 42  21  43  1   
 43  21  44  1   
 44  21  45  1   
 45  22  25  1   
 46  22  46  1   
 47  22  47  1   
 48  23  26  1   
 49  23  48  1   
 50  23  49  1   
 51  24  25  1   
 52  24  50  1   
 53  24  51  1   
 54  25  52  1   
 55  25  53  1   
 56  26  54  1   
 57  26  55  1   
 58  26  56  1   
@<TRIPOS>SUBSTRUCTURE
  1 ****  13 GROUP 4 **** **** 0

# MOE 2024.06 (io_trps.svl 2023.06)
