@<TRIPOS>MOLECULE
(4-Ethylamino-6-morpholin-4-yl-[1,3,5]triazin-2-yl)-(2-phenoxy-ethyl)-cyanamide
50 52 1 0 0 
SMALL
USER_CHARGES


@<TRIPOS>ATOM
  1 O       -1.1520    -0.8020     0.8050 O.3   1 <1>  -0.5600 
  2 C       -2.4570    -1.3030     0.8880 C.3   1 <1>   0.1200 
  3 C       -1.0410     0.5320     1.2150 C.3   1 <1>   0.1200 
  4 C       -3.4180    -0.5040    -0.0100 C.3   1 <1>   0.2090 
  5 C       -1.9030     1.4550     0.3380 C.3   1 <1>   0.2090 
  6 N       -3.3200     0.9650     0.2630 N.pl3 1 <1>  -0.8380 
  7 C       -4.4020     1.8130     0.1680 C.ar  1 <1>   0.7200 
  8 N       -4.1800     3.0810     0.3800 N.ar  1 <1>  -0.6200 
  9 N       -5.5630     1.2920    -0.1300 N.ar  1 <1>  -0.6200 
 10 C       -5.2280     3.8510     0.2560 C.ar  1 <1>   0.8190 
 11 C       -6.5230     2.1610    -0.2220 C.ar  1 <1>   0.7200 
 12 N       -6.4320     3.4480    -0.0430 N.ar  1 <1>  -0.6200 
 13 N       -5.0260     5.2010     0.4540 N.pl3 1 <1>  -0.6810 
 14 N       -7.7310     1.6440    -0.5360 N.pl3 1 <1>  -0.8690 
 15 C       -6.0110     6.1470     0.1250 C.1   1 <1>   0.6830 
 16 C       -3.7600     5.7400     1.0260 C.3   1 <1>   0.1960 
 17 C       -9.0120     2.3630    -0.4340 C.3   1 <1>   0.2090 
 18 N       -6.7690     6.9550    -0.1330 N.1   1 <1>  -0.5570 
 19 C       -2.6810     5.8500    -0.0530 C.3   1 <1>   0.1200 
 20 C      -10.1000     1.4910    -1.0440 C.3   1 <1>  -0.2400 
 21 O       -1.4620     6.1920     0.5700 O.3   1 <1>  -0.3630 
 22 C       -0.2910     6.1230    -0.1100 C.ar  1 <1>   0.0820 
 23 C       -0.2050     5.9170    -1.4850 C.ar  1 <1>  -0.1500 
 24 C        0.8710     6.2630     0.6320 C.ar  1 <1>  -0.1500 
 25 C        1.0340     5.8430    -2.0970 C.ar  1 <1>  -0.1500 
 26 C        2.1090     6.1890     0.0180 C.ar  1 <1>  -0.1500 
 27 C        2.1900     5.9780    -1.3480 C.ar  1 <1>  -0.1500 
 28 H       -2.7800    -1.2560     1.9140 H     1 <1>   0.0800 
 29 H       -2.4340    -2.3330     0.5800 H     1 <1>   0.0800 
 30 H       -0.0060     0.8130     1.1410 H     1 <1>   0.0800 
 31 H       -1.3460     0.6030     2.2450 H     1 <1>   0.0800 
 32 H       -4.4180    -0.8610     0.1620 H     1 <1>   0.0800 
 33 H       -3.1730    -0.6880    -1.0420 H     1 <1>   0.0800 
 34 H       -1.4880     1.4840    -0.6550 H     1 <1>   0.0800 
 35 H       -1.8540     2.4490     0.7450 H     1 <1>   0.0800 
 36 H       -7.7690     0.6270    -0.5130 H     1 <1>   0.4000 
 37 H       -3.4160     5.0850     1.8080 H     1 <1>   0.0800 
 38 H       -3.9350     6.7120     1.4560 H     1 <1>   0.0800 
 39 H       -8.9460     3.3000    -0.9630 H     1 <1>   0.0800 
 40 H       -9.2300     2.5660     0.6020 H     1 <1>   0.0800 
 41 H       -2.9260     6.6180    -0.7650 H     1 <1>   0.0800 
 42 H       -2.5480     4.9040    -0.5460 H     1 <1>   0.0800 
 43 H       -9.8770     1.2910    -2.0770 H     1 <1>   0.0800 
 44 H      -11.0420     2.0060    -0.9930 H     1 <1>   0.0800 
 45 H      -10.1870     0.5650    -0.5060 H     1 <1>   0.0800 
 46 H       -1.0840     5.8160    -2.0920 H     1 <1>   0.1500 
 47 H        0.8010     6.4270     1.6920 H     1 <1>   0.1500 
 48 H        1.1000     5.6820    -3.1590 H     1 <1>   0.1500 
 49 H        3.0080     6.2970     0.6010 H     1 <1>   0.1500 
 50 H        3.1520     5.9190    -1.8270 H     1 <1>   0.1500 
@<TRIPOS>BOND
  1   1   2  1   
  2   1   3  1   
  3   2   4  1   
  4   2  28  1   
  5   2  29  1   
  6   3   5  1   
  7   3  30  1   
  8   3  31  1   
  9   4   6  1   
 10   4  32  1   
 11   4  33  1   
 12   5   6  1   
 13   5  34  1   
 14   5  35  1   
 15   6   7  1   
 16   7   8  ar  
 17   7   9  ar  
 18   8  10  ar  
 19   9  11  ar  
 20  10  12  ar  
 21  10  13  1   
 22  11  12  ar  
 23  11  14  1   
 24  13  15  1   
 25  13  16  1   
 26  14  17  1   
 27  14  36  1   
 28  15  18  3   
 29  16  19  1   
 30  16  37  1   
 31  16  38  1   
 32  17  20  1   
 33  17  39  1   
 34  17  40  1   
 35  19  21  1   
 36  19  41  1   
 37  19  42  1   
 38  20  43  1   
 39  20  44  1   
 40  20  45  1   
 41  21  22  1   
 42  22  23  ar  
 43  22  24  ar  
 44  23  25  ar  
 45  23  46  1   
 46  24  26  ar  
 47  24  47  1   
 48  25  27  ar  
 49  25  48  1   
 50  26  27  ar  
 51  26  49  1   
 52  27  50  1   
@<TRIPOS>SUBSTRUCTURE
  1 ****   8 GROUP 4 **** **** 0

# MOE 2024.06 (io_trps.svl 2023.06)
