@<TRIPOS>MOLECULE
7-(2-Ethoxy-ethyl)-1,3-dimethyl-8-(4-phenyl-piperazin-1-ylmethyl)-3,7-dihydro-pu
62 65 1 0 0 
SMALL
USER_CHARGES


@<TRIPOS>ATOM
  1 O        0.3480     0.0270    -1.6950 O.2   1 <1>  -0.5700 
  2 C        1.2100     0.6630    -1.1240 C.2   1 <1>   0.6900 
  3 N        0.8570     1.6420    -0.2010 N.am  1 <1>  -0.4200 
  4 N        2.5460     0.4030    -1.3880 N.am  1 <1>  -0.4360 
  5 C        1.8220     2.3310     0.5220 C.2   1 <1>   0.7030 
  6 C       -0.5950     1.9200     0.0340 C.3   1 <1>   0.0600 
  7 C        3.4970     1.0880    -0.6550 C.2   1 <1>   0.4260 
  8 C        2.9460    -0.6100    -2.4090 C.3   1 <1>   0.0600 
  9 O        1.5010     3.1800     1.3370 O.2   1 <1>  -0.5700 
 10 C        3.2010     2.0180     0.2830 C.2   1 <1>   0.2770 
 11 N        4.8450     0.9680    -0.7210 N.pl3 1 <1>  -0.7000 
 12 N        4.4220     2.4600     0.8060 N.pl3 1 <1>  -0.7640 
 13 C        5.3830     1.8090     0.1540 C.cat 1 <1>   0.6560 
 14 C        4.5730     3.5160     1.8560 C.3   1 <1>   0.3540 
 15 C        6.9070     1.9240     0.3210 C.3   1 <1>   0.2540 
 16 C        4.9000     4.8820     1.2350 C.3   1 <1>   0.1200 
 17 N        7.6000     0.6450     0.0100 N.3   1 <1>  -0.8100 
 18 O        6.0510     4.7720     0.4510 O.3   1 <1>  -0.5600 
 19 C        7.4210    -0.3470     1.1060 C.3   1 <1>   0.1100 
 20 C        9.0530     0.8820    -0.1990 C.3   1 <1>   0.1100 
 21 C        6.4370     5.9600    -0.1580 C.3   1 <1>   0.1200 
 22 C        8.1520    -1.6720     0.8230 C.3   1 <1>   0.2090 
 23 C        9.8270    -0.4170    -0.4970 C.3   1 <1>   0.2090 
 24 C        7.6700     5.6600    -1.0010 C.3   1 <1>  -0.2400 
 25 N        9.5950    -1.4220     0.5780 N.pl3 1 <1>  -0.8380 
 26 C       10.4160    -2.5420     0.5650 C.ar  1 <1>   0.1000 
 27 C       10.3790    -3.4640    -0.4760 C.ar  1 <1>  -0.1500 
 28 C       11.2980    -2.7570     1.6150 C.ar  1 <1>  -0.1500 
 29 C       11.2040    -4.5740    -0.4660 C.ar  1 <1>  -0.1500 
 30 C       12.1260    -3.8650     1.6300 C.ar  1 <1>  -0.1500 
 31 C       12.0790    -4.7760     0.5880 C.ar  1 <1>  -0.1500 
 32 H       -1.1400     1.8630    -0.8930 H     1 <1>   0.0800 
 33 H       -0.7400     2.9030     0.4470 H     1 <1>   0.0800 
 34 H       -0.9960     1.1900     0.7160 H     1 <1>   0.0800 
 35 H        2.1470    -0.7760    -3.1110 H     1 <1>   0.0800 
 36 H        3.1770    -1.5420    -1.9240 H     1 <1>   0.0800 
 37 H        3.8060    -0.2680    -2.9580 H     1 <1>   0.0800 
 38 H        5.4230     0.3500    -1.2970 H     1 <1>   0.4500 
 39 H        5.3630     3.2440     2.5340 H     1 <1>   0.0800 
 40 H        3.6700     3.5950     2.4360 H     1 <1>   0.0800 
 41 H        7.1490     2.2460     1.3170 H     1 <1>   0.0800 
 42 H        7.2460     2.6810    -0.3630 H     1 <1>   0.0800 
 43 H        5.0760     5.6070     2.0110 H     1 <1>   0.0800 
 44 H        4.0830     5.2120     0.6160 H     1 <1>   0.0800 
 45 H        6.3750    -0.5600     1.2440 H     1 <1>   0.0800 
 46 H        7.8040     0.0530     2.0300 H     1 <1>   0.0800 
 47 H        9.4820     1.3340     0.6790 H     1 <1>   0.0800 
 48 H        9.1930     1.5580    -1.0250 H     1 <1>   0.0800 
 49 H        6.6660     6.6880     0.6040 H     1 <1>   0.0800 
 50 H        5.6320     6.3170    -0.7790 H     1 <1>   0.0800 
 51 H        7.7170    -2.1520    -0.0360 H     1 <1>   0.0800 
 52 H        8.0470    -2.3320     1.6680 H     1 <1>   0.0800 
 53 H       10.8800    -0.2040    -0.5590 H     1 <1>   0.0800 
 54 H        9.5080    -0.8180    -1.4430 H     1 <1>   0.0800 
 55 H        8.4670     5.2940    -0.3780 H     1 <1>   0.0800 
 56 H        8.0040     6.5600    -1.4850 H     1 <1>   0.0800 
 57 H        7.4370     4.9350    -1.7590 H     1 <1>   0.0800 
 58 H        9.7000    -3.3080    -1.2920 H     1 <1>   0.1500 
 59 H       11.3250    -2.0430     2.4170 H     1 <1>   0.1500 
 60 H       11.1670    -5.2810    -1.2760 H     1 <1>   0.1500 
 61 H       12.8040    -4.0170     2.4500 H     1 <1>   0.1500 
 62 H       12.7220    -5.6390     0.5980 H     1 <1>   0.1500 
@<TRIPOS>BOND
  1   1   2  2   
  2   2   3  am  
  3   2   4  am  
  4   3   5  am  
  5   3   6  1   
  6   4   7  1   
  7   4   8  1   
  8   5   9  2   
  9   5  10  1   
 10   6  32  1   
 11   6  33  1   
 12   6  34  1   
 13   7  10  2   
 14   7  11  1   
 15   8  35  1   
 16   8  36  1   
 17   8  37  1   
 18  10  12  1   
 19  11  13  ar  
 20  11  38  1   
 21  12  13  ar  
 22  12  14  1   
 23  13  15  1   
 24  14  16  1   
 25  14  39  1   
 26  14  40  1   
 27  15  17  1   
 28  15  41  1   
 29  15  42  1   
 30  16  18  1   
 31  16  43  1   
 32  16  44  1   
 33  17  19  1   
 34  17  20  1   
 35  18  21  1   
 36  19  22  1   
 37  19  45  1   
 38  19  46  1   
 39  20  23  1   
 40  20  47  1   
 41  20  48  1   
 42  21  24  1   
 43  21  49  1   
 44  21  50  1   
 45  22  25  1   
 46  22  51  1   
 47  22  52  1   
 48  23  25  1   
 49  23  53  1   
 50  23  54  1   
 51  24  55  1   
 52  24  56  1   
 53  24  57  1   
 54  25  26  1   
 55  26  27  ar  
 56  26  28  ar  
 57  27  29  ar  
 58  27  58  1   
 59  28  30  ar  
 60  28  59  1   
 61  29  31  ar  
 62  29  60  1   
 63  30  31  ar  
 64  30  61  1   
 65  31  62  1   
@<TRIPOS>SUBSTRUCTURE
  1 ****  13 GROUP 4 **** **** 0

# MOE 2024.06 (io_trps.svl 2023.06)
