@<TRIPOS>MOLECULE
4-Hydroxy-6-methyl-2-oxo-1-propyl-1,2,5,6,7,8-hexahydro-quinoline-3-carboxylic a
47 49 1 0 0 
SMALL
USER_CHARGES


@<TRIPOS>ATOM
  1 O       -0.0470     0.4780     0.8980 O.3   1 <1>  -0.8500 
  2 C       -1.0770     1.0170     0.4770 C.2   1 <1>  -0.0500 
  3 N       -2.2300     0.2350     0.4420 N.pl3 1 <1>  -0.5690 
  4 C       -1.1050     2.3770     0.0510 C.2   1 <1>   0.0290 
  5 C       -3.4680     0.8120     0.1540 C.2   1 <1>  -0.0380 
  6 C       -2.0580    -1.2220     0.7670 C.3   1 <1>   0.2090 
  7 C       -2.3680     2.9500    -0.2060 C.2   1 <1>   0.5410 
  8 C        0.0900     3.1370    -0.0950 C.2   1 <1>   0.6160 
  9 C       -3.5490     2.1360    -0.1390 C.2   1 <1>  -0.1240 
 10 C       -4.7170    -0.0730     0.2010 C.3   1 <1>  -0.0220 
 11 C       -1.4520    -2.0050    -0.4130 C.3   1 <1>  -0.1600 
 12 O       -2.5230     4.1570    -0.4630 O.2   1 <1>  -0.5700 
 13 O        0.2040     4.1150    -0.8360 O.2   1 <1>  -0.5700 
 14 N        1.2180     2.7460     0.5930 N.am  1 <1>  -0.5470 
 15 C       -4.8880     2.8310    -0.4140 C.3   1 <1>  -0.0220 
 16 C       -5.9590     0.5720    -0.4220 C.3   1 <1>  -0.1600 
 17 C       -2.3380    -2.0650    -1.6650 C.3   1 <1>  -0.2400 
 18 C        2.5390     3.2070     0.6630 C.ar  1 <1>   0.1170 
 19 C       -6.1030     2.0180     0.0510 C.3   1 <1>  -0.0800 
 20 C        3.5610     2.3280     1.0240 C.ar  1 <1>   0.1600 
 21 C        2.8900     4.5220     0.4030 C.ar  1 <1>  -0.1500 
 22 C       -7.4090     2.6360    -0.4650 C.3   1 <1>  -0.2400 
 23 N        4.8470     2.6370     1.1400 N.ar  1 <1>  -0.6200 
 24 C        4.2190     4.8650     0.5140 C.ar  1 <1>  -0.1500 
 25 C        5.1430     3.9000     0.8790 C.ar  1 <1>   0.1600 
 26 H       -2.9830    -1.6660     1.0690 H     1 <1>   0.0800 
 27 H       -1.3960    -1.3030     1.6110 H     1 <1>   0.0800 
 28 H       -4.9180    -0.3080     1.2310 H     1 <1>   0.0800 
 29 H       -4.5390    -0.9910    -0.3240 H     1 <1>   0.0800 
 30 H       -1.2420    -3.0050    -0.0820 H     1 <1>   0.0800 
 31 H       -0.5110    -1.5480    -0.6650 H     1 <1>   0.0800 
 32 H        1.0230     1.7810     0.9400 H     1 <1>   0.3700 
 33 H       -4.9520     3.0200    -1.4710 H     1 <1>   0.0800 
 34 H       -4.9130     3.7810     0.0900 H     1 <1>   0.0800 
 35 H       -6.8290     0.0000    -0.1540 H     1 <1>   0.0800 
 36 H       -5.8620     0.5550    -1.4940 H     1 <1>   0.0800 
 37 H       -3.2580    -2.5780    -1.4550 H     1 <1>   0.0800 
 38 H       -1.8230    -2.5850    -2.4520 H     1 <1>   0.0800 
 39 H       -2.5570    -1.0670    -2.0050 H     1 <1>   0.0800 
 40 H       -6.1230     2.0250     1.1290 H     1 <1>   0.0800 
 41 H        3.2800     1.3080     1.2250 H     1 <1>   0.1500 
 42 H        2.1450     5.2450     0.1260 H     1 <1>   0.1500 
 43 H       -7.4290     2.6350    -1.5410 H     1 <1>   0.0800 
 44 H       -7.4990     3.6520    -0.1210 H     1 <1>   0.0800 
 45 H       -8.2540     2.0790    -0.1030 H     1 <1>   0.0800 
 46 H        4.5360     5.8720     0.3180 H     1 <1>   0.1500 
 47 H        6.1790     4.1820     0.9610 H     1 <1>   0.1500 
@<TRIPOS>BOND
  1   1   2  1   
  2   2   3  1   
  3   2   4  2   
  4   3   5  1   
  5   3   6  1   
  6   4   7  1   
  7   4   8  1   
  8   5   9  2   
  9   5  10  1   
 10   6  11  1   
 11   6  26  1   
 12   6  27  1   
 13   7   9  1   
 14   7  12  2   
 15   8  13  2   
 16   8  14  am  
 17   9  15  1   
 18  10  16  1   
 19  10  28  1   
 20  10  29  1   
 21  11  17  1   
 22  11  30  1   
 23  11  31  1   
 24  14  18  1   
 25  14  32  1   
 26  15  19  1   
 27  15  33  1   
 28  15  34  1   
 29  16  19  1   
 30  16  35  1   
 31  16  36  1   
 32  17  37  1   
 33  17  38  1   
 34  17  39  1   
 35  18  20  ar  
 36  18  21  ar  
 37  19  22  1   
 38  19  40  1   
 39  20  23  ar  
 40  20  41  1   
 41  21  24  ar  
 42  21  42  1   
 43  22  43  1   
 44  22  44  1   
 45  22  45  1   
 46  23  25  ar  
 47  24  25  ar  
 48  24  46  1   
 49  25  47  1   
@<TRIPOS>SUBSTRUCTURE
  1 ****   4 GROUP 4 **** **** 0

# MOE 2024.06 (io_trps.svl 2023.06)
