@<TRIPOS>MOLECULE
1-Methanesulfonyl-piperidine-3-carboxylic acid (2,3-dichloro-phenyl)-amide
37 38 1 0 0 
SMALL
USER_CHARGES


@<TRIPOS>ATOM
  1 CL      -0.9710     0.9670    -2.4410 Cl    1 <1>  -0.1770 
  2 C       -0.6100     2.1490    -1.1930 C.ar  1 <1>   0.1770 
  3 C        0.6430     2.7350    -1.1390 C.ar  1 <1>   0.1770 
  4 C       -1.6020     2.4760    -0.2700 C.ar  1 <1>   0.1170 
  5 CL       1.8760     2.3170    -2.3060 Cl    1 <1>  -0.1770 
  6 C        0.9450     3.6630    -0.1600 C.ar  1 <1>  -0.1500 
  7 N       -2.8620     1.8500    -0.3700 N.am  1 <1>  -0.5470 
  8 C       -1.2800     3.4110     0.7150 C.ar  1 <1>  -0.1500 
  9 C       -0.0260     3.9980     0.7700 C.ar  1 <1>  -0.1500 
 10 C       -4.0550     2.0690     0.2620 C.2   1 <1>   0.5690 
 11 O       -4.2240     2.9260     1.0940 O.2   1 <1>  -0.5700 
 12 C       -5.2270     1.1730    -0.1090 C.3   1 <1>  -0.0190 
 13 C       -6.4870     2.0220    -0.3180 C.3   1 <1>   0.1960 
 14 C       -5.4670     0.0910     0.9600 C.3   1 <1>  -0.1600 
 15 N       -7.6300     1.1650    -0.6550 N.am  1 <1>  -0.8490 
 16 C       -6.7160    -0.7290     0.6110 C.3   1 <1>  -0.1600 
 17 S       -8.9790     2.0020    -1.2510 S.o2  1 <1>   1.3330 
 18 C       -7.9370     0.1660     0.3710 C.3   1 <1>   0.1960 
 19 O      -10.0190     1.0370    -1.5190 O.2   1 <1>  -0.6500 
 20 O       -8.5190     2.8960    -2.2890 O.2   1 <1>  -0.6500 
 21 C       -9.5180     3.0040     0.1220 C.3   1 <1>  -0.1350 
 22 H        1.9220     4.1130    -0.1270 H     1 <1>   0.1500 
 23 H       -2.8880     1.1170    -1.0830 H     1 <1>   0.3700 
 24 H       -2.0070     3.6920     1.4550 H     1 <1>   0.1500 
 25 H        0.1940     4.7180     1.5410 H     1 <1>   0.1500 
 26 H       -5.0090     0.6930    -1.0460 H     1 <1>   0.0800 
 27 H       -6.3050     2.7200    -1.1190 H     1 <1>   0.0800 
 28 H       -6.7020     2.5840     0.5770 H     1 <1>   0.0800 
 29 H       -5.6050     0.5620     1.9200 H     1 <1>   0.0800 
 30 H       -4.6110    -0.5570     1.0280 H     1 <1>   0.0800 
 31 H       -6.9330    -1.4180     1.4090 H     1 <1>   0.0800 
 32 H       -6.5360    -1.3070    -0.2790 H     1 <1>   0.0800 
 33 H       -8.7590    -0.4510     0.0450 H     1 <1>   0.0800 
 34 H       -8.2190     0.6540     1.2880 H     1 <1>   0.0800 
 35 H       -9.7800     2.3880     0.9580 H     1 <1>   0.0800 
 36 H      -10.3820     3.5700    -0.1650 H     1 <1>   0.0800 
 37 H       -8.7480     3.6890     0.4140 H     1 <1>   0.0800 
@<TRIPOS>BOND
  1   1   2  1   
  2   2   3  ar  
  3   2   4  ar  
  4   3   5  1   
  5   3   6  ar  
  6   4   7  1   
  7   4   8  ar  
  8   6   9  ar  
  9   6  22  1   
 10   7  10  am  
 11   7  23  1   
 12   8   9  ar  
 13   8  24  1   
 14   9  25  1   
 15  10  11  2   
 16  10  12  1   
 17  12  13  1   
 18  12  14  1   
 19  12  26  1   
 20  13  15  1   
 21  13  27  1   
 22  13  28  1   
 23  14  16  1   
 24  14  29  1   
 25  14  30  1   
 26  15  17  am  
 27  15  18  1   
 28  16  18  1   
 29  16  31  1   
 30  16  32  1   
 31  17  19  2   
 32  17  20  2   
 33  17  21  1   
 34  18  33  1   
 35  18  34  1   
 36  21  35  1   
 37  21  36  1   
 38  21  37  1   
@<TRIPOS>SUBSTRUCTURE
  1 ****  10 GROUP 4 **** **** 0

# MOE 2024.06 (io_trps.svl 2023.06)
