@<TRIPOS>MOLECULE
N-Ethyl-4-(3-furan-2-ylmethyl-4-oxo-thiazolidin-2-yl)-benzamide
41 43 1 0 0 
SMALL
USER_CHARGES


@<TRIPOS>ATOM
  1 S       -0.2900    -0.5280    -0.8400 S.3   1 <1>  -0.4600 
  2 C       -0.2930    -2.2780    -0.3820 C.3   1 <1>   0.5940 
  3 C       -1.3180     0.0710     0.5210 C.3   1 <1>   0.1310 
  4 N       -1.0860    -2.3250     0.8590 N.am  1 <1>  -0.6600 
  5 C        1.1410    -2.7480    -0.1560 C.ar  1 <1>  -0.1440 
  6 C       -1.6100    -1.1680     1.3350 C.2   1 <1>   0.5690 
  7 C       -1.3070    -3.6480     1.4900 C.3   1 <1>   0.3200 
  8 C        1.6120    -3.8670    -0.8250 C.ar  1 <1>  -0.1500 
  9 C        1.9900    -2.0910     0.7240 C.ar  1 <1>  -0.1500 
 10 O       -2.2700    -1.0990     2.3440 O.2   1 <1>  -0.5700 
 11 C       -2.1220    -4.5450     0.5720 C.2   1 <1>  -0.0400 
 12 C        2.9060    -4.3120    -0.6250 C.ar  1 <1>  -0.1500 
 13 C        3.2830    -2.5400     0.9200 C.ar  1 <1>  -0.1500 
 14 O       -1.5510    -5.0830    -0.4910 O.3   1 <1>  -0.2800 
 15 C       -3.4160    -4.9230     0.6530 C.2   1 <1>  -0.1500 
 16 C        3.7750    -3.6550     0.2440 C.ar  1 <1>   0.0860 
 17 C       -2.4610    -5.8110    -1.1070 C.2   1 <1>  -0.0100 
 18 C       -3.6390    -5.7550    -0.4510 C.2   1 <1>  -0.1500 
 19 C        5.1350    -4.1270     0.4330 C.2   1 <1>   0.5440 
 20 O        5.3700    -5.3070     0.5840 O.2   1 <1>  -0.5700 
 21 N        6.2130    -3.2960     0.4390 N.am  1 <1>  -0.7300 
 22 C        6.3090    -1.9350    -0.1220 C.3   1 <1>   0.1400 
 23 C        7.5060    -1.8840    -1.0610 C.3   1 <1>  -0.2400 
 24 H       -0.7790    -2.8160    -1.1780 H     1 <1>   0.0800 
 25 H       -2.2140     0.4970     0.1100 H     1 <1>   0.0800 
 26 H       -0.7550     0.7930     1.0820 H     1 <1>   0.0800 
 27 H       -1.8370    -3.5220     2.4190 H     1 <1>   0.0800 
 28 H       -0.3620    -4.1130     1.7080 H     1 <1>   0.0800 
 29 H        0.9710    -4.4040    -1.5040 H     1 <1>   0.1500 
 30 H        1.6430    -1.2260     1.2630 H     1 <1>   0.1500 
 31 H        3.2600    -5.1860    -1.1440 H     1 <1>   0.1500 
 32 H        3.9250    -2.0250     1.6130 H     1 <1>   0.1500 
 33 H       -4.1500    -4.6580     1.3940 H     1 <1>   0.1500 
 34 H       -2.1870    -6.3380    -2.0040 H     1 <1>   0.1500 
 35 H       -4.5710    -6.2350    -0.6940 H     1 <1>   0.1500 
 36 H        7.1040    -3.7660     0.6080 H     1 <1>   0.3700 
 37 H        6.4360    -1.2270     0.6800 H     1 <1>   0.0800 
 38 H        5.4100    -1.6890    -0.6630 H     1 <1>   0.0800 
 39 H        8.4150    -2.0980    -0.5270 H     1 <1>   0.0800 
 40 H        7.5870    -0.9010    -1.4900 H     1 <1>   0.0800 
 41 H        7.3830    -2.5940    -1.8600 H     1 <1>   0.0800 
@<TRIPOS>BOND
  1   1   2  1   
  2   1   3  1   
  3   2   4  1   
  4   2   5  1   
  5   2  24  1   
  6   3   6  1   
  7   3  25  1   
  8   3  26  1   
  9   4   6  am  
 10   4   7  1   
 11   5   8  ar  
 12   5   9  ar  
 13   6  10  2   
 14   7  11  1   
 15   7  27  1   
 16   7  28  1   
 17   8  12  ar  
 18   8  29  1   
 19   9  13  ar  
 20   9  30  1   
 21  11  14  1   
 22  11  15  2   
 23  12  16  ar  
 24  12  31  1   
 25  13  16  ar  
 26  13  32  1   
 27  14  17  1   
 28  15  18  1   
 29  15  33  1   
 30  16  19  1   
 31  17  18  2   
 32  17  34  1   
 33  18  35  1   
 34  19  20  2   
 35  19  21  am  
 36  21  22  1   
 37  21  36  1   
 38  22  23  1   
 39  22  37  1   
 40  22  38  1   
 41  23  39  1   
 42  23  40  1   
 43  23  41  1   
@<TRIPOS>SUBSTRUCTURE
  1 ****   5 GROUP 4 **** **** 0

# MOE 2024.06 (io_trps.svl 2023.06)
