@<TRIPOS>MOLECULE
7-[2-(4-Methoxy-phenyl)-ethyl]-3-methyl-8-(4-methyl-piperazin-1-yl)-3,7-dihydro-
57 60 1 0 0 
SMALL
USER_CHARGES


@<TRIPOS>ATOM
  1 O        1.7040     0.3990    -1.9450 O.2   1 <1>  -0.5740 
  2 C        2.4940     1.0190    -1.2740 C.2   1 <1>   0.6870 
  3 N        3.8640     0.8150    -1.3610 N.am  1 <1>  -0.4410 
  4 N        2.0160     1.9540    -0.4050 N.am  1 <1>  -0.4940 
  5 C        4.6820     1.5910    -0.5530 C.2   1 <1>   0.4210 
  6 C        4.4280    -0.2020    -2.2980 C.3   1 <1>   0.0530 
  7 C        2.8090     2.7250     0.3940 C.2   1 <1>   0.7000 
  8 N        6.0380     1.5780    -0.4960 N.pl3 1 <1>  -0.7030 
  9 C        4.2290     2.5160     0.3200 C.2   1 <1>   0.2710 
 10 O        2.2860     3.5510     1.1150 O.2   1 <1>  -0.5740 
 11 C        6.4500     2.4720     0.4090 C.cat 1 <1>   1.0690 
 12 N        5.3670     3.0760     0.9460 N.pl3 1 <1>  -0.7670 
 13 N        7.7810     2.6580     0.6510 N.pl3 1 <1>  -0.5960 
 14 C        5.1830     4.2490     1.8650 C.3   1 <1>   0.3490 
 15 C        8.2940     3.3090     1.9130 C.3   1 <1>   0.1610 
 16 C        8.7750     2.3730    -0.4620 C.3   1 <1>   0.1610 
 17 C        5.1410     5.5780     1.0900 C.3   1 <1>  -0.0240 
 18 C        9.8240     3.4570     2.0520 C.3   1 <1>   0.3380 
 19 C       10.2670     2.6840    -0.2010 C.3   1 <1>   0.3380 
 20 C        6.5000     5.9000     0.4870 C.ar  1 <1>  -0.1500 
 21 N       10.4670     3.8030     0.7550 N.4   1 <1>  -0.9610 
 22 C        7.4340     6.6080     1.2310 C.ar  1 <1>  -0.1560 
 23 C        6.8270     5.4660    -0.7890 C.ar  1 <1>  -0.1560 
 24 C       11.9170     4.1190     0.9210 C.3   1 <1>   0.2570 
 25 C        8.7110     6.8060     0.7400 C.ar  1 <1>  -0.1560 
 26 C        8.1030     5.6650    -1.2840 C.ar  1 <1>  -0.1560 
 27 C        9.0520     6.3050    -0.5060 C.ar  1 <1>   0.0760 
 28 O       10.3160     6.3770    -0.9650 O.3   1 <1>  -0.3680 
 29 C       10.8750     7.6670    -1.1060 C.3   1 <1>   0.0330 
 30 H        1.0060     2.0840    -0.3670 H     1 <1>   0.3650 
 31 H        3.6430    -0.7800    -2.7560 H     1 <1>   0.0730 
 32 H        5.0720    -0.8790    -1.7630 H     1 <1>   0.0730 
 33 H        4.9850     0.2880    -3.0770 H     1 <1>   0.0730 
 34 H        6.6300     0.9460    -1.0240 H     1 <1>   0.4450 
 35 H        5.9550     4.2810     2.6090 H     1 <1>   0.0730 
 36 H        4.2600     4.1370     2.4080 H     1 <1>   0.0730 
 37 H        7.9250     2.7660     2.7670 H     1 <1>   0.0730 
 38 H        7.9010     4.2980     1.9760 H     1 <1>   0.0730 
 39 H        8.4790     2.9430    -1.3270 H     1 <1>   0.0730 
 40 H        8.7110     1.3350    -0.7390 H     1 <1>   0.0730 
 41 H        4.8620     6.3650     1.7690 H     1 <1>   0.0730 
 42 H        4.3840     5.5410     0.3270 H     1 <1>   0.0730 
 43 H       10.2360     2.5320     2.4210 H     1 <1>   0.0730 
 44 H       10.0360     4.2220     2.7810 H     1 <1>   0.0730 
 45 H       10.7470     2.9160    -1.1380 H     1 <1>   0.0730 
 46 H       10.7410     1.7990     0.1920 H     1 <1>   0.0730 
 47 H       10.0220     4.6570     0.3590 H     1 <1>   0.4450 
 48 H        7.1770     7.0020     2.2010 H     1 <1>   0.1440 
 49 H        6.0920     4.9750    -1.4030 H     1 <1>   0.1440 
 50 H       12.4500     3.2650     1.3080 H     1 <1>   0.0730 
 51 H       12.0430     4.9450     1.6030 H     1 <1>   0.0730 
 52 H       12.3470     4.3970    -0.0280 H     1 <1>   0.0730 
 53 H        9.4340     7.3440     1.3290 H     1 <1>   0.1440 
 54 H        8.3680     5.3340    -2.2730 H     1 <1>   0.1440 
 55 H       11.8080     7.5770    -1.6340 H     1 <1>   0.0730 
 56 H       11.0450     8.0940    -0.1340 H     1 <1>   0.0730 
 57 H       10.1960     8.2830    -1.6710 H     1 <1>   0.0730 
@<TRIPOS>BOND
  1   1   2  2   
  2   2   3  am  
  3   2   4  am  
  4   3   5  1   
  5   3   6  1   
  6   4   7  am  
  7   4  30  1   
  8   5   8  1   
  9   5   9  2   
 10   6  31  1   
 11   6  32  1   
 12   6  33  1   
 13   7   9  1   
 14   7  10  2   
 15   8  11  ar  
 16   8  34  1   
 17   9  12  1   
 18  11  12  ar  
 19  11  13  ar  
 20  12  14  1   
 21  13  15  1   
 22  13  16  1   
 23  14  17  1   
 24  14  35  1   
 25  14  36  1   
 26  15  18  1   
 27  15  37  1   
 28  15  38  1   
 29  16  19  1   
 30  16  39  1   
 31  16  40  1   
 32  17  20  1   
 33  17  41  1   
 34  17  42  1   
 35  18  21  1   
 36  18  43  1   
 37  18  44  1   
 38  19  21  1   
 39  19  45  1   
 40  19  46  1   
 41  20  22  ar  
 42  20  23  ar  
 43  21  24  1   
 44  21  47  1   
 45  22  25  ar  
 46  22  48  1   
 47  23  26  ar  
 48  23  49  1   
 49  24  50  1   
 50  24  51  1   
 51  24  52  1   
 52  25  27  ar  
 53  25  53  1   
 54  26  27  ar  
 55  26  54  1   
 56  27  28  1   
 57  28  29  1   
 58  29  55  1   
 59  29  56  1   
 60  29  57  1   
@<TRIPOS>SUBSTRUCTURE
  1 ****  11 GROUP 4 **** **** 0

# MOE 2024.06 (io_trps.svl 2023.06)
