@<TRIPOS>MOLECULE
1-(2,5-Dichloro-benzenesulfonyl)-piperidine-3-carboxylic acid (pyridin-3-ylmethy
46 48 1 0 0 
SMALL
USER_CHARGES


@<TRIPOS>ATOM
  1 CL       0.9990     0.2930    -1.4650 Cl    1 <1>  -0.1770 
  2 C        1.2160     1.9810    -1.0670 C.ar  1 <1>   0.1770 
  3 C        1.6780     2.3730     0.1850 C.ar  1 <1>  -0.0090 
  4 C        0.9050     2.8980    -2.0580 C.ar  1 <1>  -0.1500 
  5 S        2.0910     1.1660     1.4640 S.o2  1 <1>   1.4470 
  6 C        1.8150     3.7380     0.4190 C.ar  1 <1>  -0.1500 
  7 C        1.0500     4.2510    -1.8090 C.ar  1 <1>  -0.1500 
  8 O        0.9490     0.3170     1.7180 O.2   1 <1>  -0.6500 
  9 O        2.7040     1.8480     2.5850 O.2   1 <1>  -0.6500 
 10 N        3.3120     0.2250     0.7580 N.am  1 <1>  -0.8490 
 11 C        1.5040     4.6550    -0.5690 C.ar  1 <1>   0.1770 
 12 C        4.5830     0.9560     0.5640 C.3   1 <1>   0.1960 
 13 C        3.4900    -1.0720     1.4050 C.3   1 <1>   0.1960 
 14 CL       1.6870     6.3580    -0.2400 Cl    1 <1>  -0.1770 
 15 C        5.7820     0.0280     0.2600 C.3   1 <1>  -0.0190 
 16 C        4.2970    -2.0040     0.4840 C.3   1 <1>  -0.1600 
 17 C        6.8550     0.7450    -0.5590 C.2   1 <1>   0.5690 
 18 C        5.3100    -1.2700    -0.4160 C.3   1 <1>  -0.1600 
 19 O        6.5380     1.5810    -1.3660 O.2   1 <1>  -0.5700 
 20 N        8.1670     0.4580    -0.3980 N.am  1 <1>  -0.7300 
 21 C        8.8090    -0.5560     0.4540 C.3   1 <1>   0.2840 
 22 C       10.2210    -0.7770    -0.0490 C.ar  1 <1>  -0.1430 
 23 C       10.4680    -1.6830    -1.0690 C.ar  1 <1>   0.1600 
 24 C       11.2830    -0.0810     0.4950 C.ar  1 <1>  -0.1500 
 25 N       11.6620    -1.9520    -1.5720 N.ar  1 <1>  -0.6200 
 26 C       12.5340    -0.3470    -0.0200 C.ar  1 <1>  -0.1500 
 27 C       12.6660    -1.2780    -1.0360 C.ar  1 <1>   0.1600 
 28 H        0.5540     2.5500    -3.0140 H     1 <1>   0.1500 
 29 H        2.1670     4.0950     1.3720 H     1 <1>   0.1500 
 30 H        0.8170     4.9840    -2.5620 H     1 <1>   0.1500 
 31 H        4.8260     1.5360     1.4390 H     1 <1>   0.0800 
 32 H        4.4340     1.6460    -0.2500 H     1 <1>   0.0800 
 33 H        2.5350    -1.5300     1.6050 H     1 <1>   0.0800 
 34 H        3.9980    -0.9340     2.3450 H     1 <1>   0.0800 
 35 H        6.2170    -0.2280     1.2070 H     1 <1>   0.0800 
 36 H        3.6120    -2.5520    -0.1400 H     1 <1>   0.0800 
 37 H        4.8070    -2.7230     1.0990 H     1 <1>   0.0800 
 38 H        6.1390    -1.9150    -0.6460 H     1 <1>   0.0800 
 39 H        4.8280    -1.0100    -1.3450 H     1 <1>   0.0800 
 40 H        8.8120     0.9800    -0.9990 H     1 <1>   0.3700 
 41 H        8.2550    -1.4780     0.4160 H     1 <1>   0.0800 
 42 H        8.8310    -0.2070     1.4720 H     1 <1>   0.0800 
 43 H        9.6390    -2.2190    -1.5010 H     1 <1>   0.1500 
 44 H       11.1500     0.6390     1.2840 H     1 <1>   0.1500 
 45 H       13.4020     0.1600     0.3610 H     1 <1>   0.1500 
 46 H       13.6490    -1.4780    -1.4290 H     1 <1>   0.1500 
@<TRIPOS>BOND
  1   1   2  1   
  2   2   3  ar  
  3   2   4  ar  
  4   3   5  1   
  5   3   6  ar  
  6   4   7  ar  
  7   4  28  1   
  8   5   8  2   
  9   5   9  2   
 10   5  10  am  
 11   6  11  ar  
 12   6  29  1   
 13   7  11  ar  
 14   7  30  1   
 15  10  12  1   
 16  10  13  1   
 17  11  14  1   
 18  12  15  1   
 19  12  31  1   
 20  12  32  1   
 21  13  16  1   
 22  13  33  1   
 23  13  34  1   
 24  15  17  1   
 25  15  18  1   
 26  15  35  1   
 27  16  18  1   
 28  16  36  1   
 29  16  37  1   
 30  17  19  2   
 31  17  20  am  
 32  18  38  1   
 33  18  39  1   
 34  20  21  1   
 35  20  40  1   
 36  21  22  1   
 37  21  41  1   
 38  21  42  1   
 39  22  23  ar  
 40  22  24  ar  
 41  23  25  ar  
 42  23  43  1   
 43  24  26  ar  
 44  24  44  1   
 45  25  27  ar  
 46  26  27  ar  
 47  26  45  1   
 48  27  46  1   
@<TRIPOS>SUBSTRUCTURE
  1 ****  12 GROUP 4 **** **** 0

# MOE 2024.06 (io_trps.svl 2023.06)
