@<TRIPOS>MOLECULE
[4-(Morpholine-4-sulfonyl)-piperazin-1-yl]-m-tolyl-methanone
47 49 1 0 0 
SMALL
USER_CHARGES


@<TRIPOS>ATOM
  1 S       -0.3790     0.4070    -1.3330 S.o2  1 <1>   1.5760 
  2 O       -0.9550    -0.6580    -2.1210 O.2   1 <1>  -0.6500 
  3 O        0.0810     1.6250    -1.9600 O.2   1 <1>  -0.6500 
  4 N        0.8790    -0.2240    -0.4070 N.am  1 <1>  -0.8490 
  5 N       -1.4670     0.8090    -0.1090 N.am  1 <1>  -0.8490 
  6 C        1.5750     0.8190     0.3620 C.3   1 <1>   0.1960 
  7 C        1.8500    -0.9320    -1.2510 C.3   1 <1>   0.1960 
  8 C       -2.0240    -0.3950     0.5360 C.3   1 <1>   0.1960 
  9 C       -2.5570     1.6410    -0.6390 C.3   1 <1>   0.1960 
 10 C        2.7360     0.2180     1.1740 C.3   1 <1>   0.1200 
 11 C        3.0100    -1.4900    -0.4070 C.3   1 <1>   0.1200 
 12 C       -2.9690    -0.0260     1.6900 C.3   1 <1>   0.1400 
 13 C       -3.5420     2.0700     0.4640 C.3   1 <1>   0.1400 
 14 O        3.6200    -0.4700     0.3340 O.3   1 <1>  -0.5600 
 15 N       -4.0570     0.8830     1.2140 N.am  1 <1>  -0.6600 
 16 C       -5.3830     0.5050     1.2330 C.2   1 <1>   0.5440 
 17 O       -5.6600    -0.6480     1.5030 O.2   1 <1>  -0.5700 
 18 C       -6.4480     1.4400     0.9230 C.ar  1 <1>   0.0860 
 19 C       -7.3980     1.1420    -0.0530 C.ar  1 <1>  -0.1500 
 20 C       -6.5590     2.6650     1.5810 C.ar  1 <1>  -0.1500 
 21 C       -8.4090     2.0300    -0.3790 C.ar  1 <1>  -0.1440 
 22 C       -7.5630     3.5610     1.2640 C.ar  1 <1>  -0.1500 
 23 C       -8.4850     3.2450     0.2820 C.ar  1 <1>  -0.1500 
 24 C       -9.4290     1.6830    -1.4480 C.3   1 <1>  -0.0970 
 25 H        0.8830     1.2940     1.0360 H     1 <1>   0.0800 
 26 H        1.9680     1.5740    -0.2980 H     1 <1>   0.0800 
 27 H        2.2460    -0.2650    -2.0000 H     1 <1>   0.0800 
 28 H        1.3610    -1.7480    -1.7550 H     1 <1>   0.0800 
 29 H       -1.2240    -1.0010     0.9260 H     1 <1>   0.0800 
 30 H       -2.5670    -0.9880    -0.1820 H     1 <1>   0.0800 
 31 H       -3.0930     1.0990    -1.4020 H     1 <1>   0.0800 
 32 H       -2.1440     2.5270    -1.0920 H     1 <1>   0.0800 
 33 H        2.3630    -0.4660     1.9170 H     1 <1>   0.0800 
 34 H        3.2900     0.9980     1.6650 H     1 <1>   0.0800 
 35 H        3.7580    -1.9260    -1.0440 H     1 <1>   0.0800 
 36 H        2.6520    -2.2430     0.2740 H     1 <1>   0.0800 
 37 H       -2.4070     0.4700     2.4620 H     1 <1>   0.0800 
 38 H       -3.3800    -0.9260     2.1120 H     1 <1>   0.0800 
 39 H       -4.3490     2.6150     0.0090 H     1 <1>   0.0800 
 40 H       -3.0390     2.7290     1.1490 H     1 <1>   0.0800 
 41 H       -7.3300     0.1920    -0.5540 H     1 <1>   0.1500 
 42 H       -5.8480     2.9090     2.3500 H     1 <1>   0.1500 
 43 H       -7.6320     4.5020     1.7810 H     1 <1>   0.1500 
 44 H       -9.2650     3.9450     0.0370 H     1 <1>   0.1500 
 45 H       -9.4190     0.6280    -1.6570 H     1 <1>   0.0800 
 46 H       -9.2050     2.2180    -2.3530 H     1 <1>   0.0800 
 47 H      -10.4160     1.9530    -1.1190 H     1 <1>   0.0800 
@<TRIPOS>BOND
  1   1   2  2   
  2   1   3  2   
  3   1   4  am  
  4   1   5  am  
  5   4   6  1   
  6   4   7  1   
  7   5   8  1   
  8   5   9  1   
  9   6  10  1   
 10   6  25  1   
 11   6  26  1   
 12   7  11  1   
 13   7  27  1   
 14   7  28  1   
 15   8  12  1   
 16   8  29  1   
 17   8  30  1   
 18   9  13  1   
 19   9  31  1   
 20   9  32  1   
 21  10  14  1   
 22  10  33  1   
 23  10  34  1   
 24  11  14  1   
 25  11  35  1   
 26  11  36  1   
 27  12  15  1   
 28  12  37  1   
 29  12  38  1   
 30  13  15  1   
 31  13  39  1   
 32  13  40  1   
 33  15  16  am  
 34  16  17  2   
 35  16  18  1   
 36  18  19  ar  
 37  18  20  ar  
 38  19  21  ar  
 39  19  41  1   
 40  20  22  ar  
 41  20  42  1   
 42  21  23  ar  
 43  21  24  1   
 44  22  23  ar  
 45  22  43  1   
 46  23  44  1   
 47  24  45  1   
 48  24  46  1   
 49  24  47  1   
@<TRIPOS>SUBSTRUCTURE
  1 ****   9 GROUP 4 **** **** 0

# MOE 2024.06 (io_trps.svl 2023.06)
