@<TRIPOS>MOLECULE
6-(4-Dimethylamino-6-pyrrolidin-1-yl-[1,3,5]triazin-2-yloxy)-2-phenyl-2H-pyridaz
49 52 1 0 0 
SMALL
USER_CHARGES


@<TRIPOS>ATOM
  1 O       -0.3110    -0.2160    -1.4660 O.2   1 <1>  -0.5700 
  2 C       -1.3660    -0.8400    -1.4470 C.2   1 <1>   0.6160 
  3 N       -2.4770    -0.4250    -0.6960 N.am  1 <1>  -0.1150 
  4 C       -1.4990    -2.0310    -2.2030 C.2   1 <1>  -0.1360 
  5 N       -3.6670    -1.1440    -0.6680 N.2   1 <1>  -0.5120 
  6 C       -2.4220     0.7410     0.1070 C.ar  1 <1>   0.1170 
  7 C       -2.6640    -2.7230    -2.1600 C.2   1 <1>  -0.1360 
  8 C       -3.7290    -2.2400    -1.3530 C.2   1 <1>   0.5860 
  9 C       -2.0670     1.9770    -0.4260 C.ar  1 <1>  -0.1500 
 10 C       -2.7400     0.6720     1.4600 C.ar  1 <1>  -0.1500 
 11 O       -4.8780    -2.9410    -1.3220 O.3   1 <1>  -0.2320 
 12 C       -2.0240     3.1080     0.3700 C.ar  1 <1>  -0.1500 
 13 C       -2.6990     1.8000     2.2600 C.ar  1 <1>  -0.1500 
 14 C       -4.9100    -4.1830    -0.8230 C.ar  1 <1>   0.7030 
 15 C       -2.3390     3.0200     1.7150 C.ar  1 <1>  -0.1500 
 16 N       -3.8760    -4.6150    -0.1520 N.ar  1 <1>  -0.6200 
 17 N       -5.9960    -4.8460    -1.0870 N.ar  1 <1>  -0.6200 
 18 C       -4.0060    -5.8420     0.2850 C.ar  1 <1>   0.7200 
 19 C       -6.0070    -6.0650    -0.6060 C.ar  1 <1>   0.7200 
 20 N       -5.0390    -6.6130     0.0820 N.ar  1 <1>  -0.6200 
 21 N       -2.9570    -6.3570     1.0030 N.pl3 1 <1>  -0.8380 
 22 N       -7.1270    -6.8290    -0.8540 N.pl3 1 <1>  -0.8380 
 23 C       -2.9870    -7.6990     1.6230 C.3   1 <1>   0.2090 
 24 C       -1.8540    -5.5370     1.5540 C.3   1 <1>   0.2090 
 25 C       -8.4100    -6.2390    -1.3320 C.3   1 <1>   0.1290 
 26 C       -7.1480    -8.3030    -0.6310 C.3   1 <1>   0.1290 
 27 C       -1.6740    -7.7970     2.3910 C.3   1 <1>  -0.1600 
 28 C       -1.3140    -6.3510     2.7230 C.3   1 <1>  -0.1600 
 29 H       -0.6510    -2.3380    -2.7850 H     1 <1>   0.1500 
 30 H       -2.8150    -3.6320    -2.7120 H     1 <1>   0.1500 
 31 H       -1.8180     2.0500    -1.4690 H     1 <1>   0.1500 
 32 H       -3.0250    -0.2750     1.8820 H     1 <1>   0.1500 
 33 H       -1.7430     4.0550    -0.0560 H     1 <1>   0.1500 
 34 H       -2.9480     1.7280     3.3040 H     1 <1>   0.1500 
 35 H       -2.3060     3.8990     2.3350 H     1 <1>   0.1500 
 36 H       -3.0670    -8.4670     0.8720 H     1 <1>   0.0800 
 37 H       -3.8260    -7.7610     2.2960 H     1 <1>   0.0800 
 38 H       -2.2060    -4.5720     1.8790 H     1 <1>   0.0800 
 39 H       -1.0990    -5.4120     0.7970 H     1 <1>   0.0800 
 40 H       -8.4880    -5.2060    -1.0390 H     1 <1>   0.0800 
 41 H       -9.2430    -6.7720    -0.9070 H     1 <1>   0.0800 
 42 H       -8.4580    -6.3020    -2.4050 H     1 <1>   0.0800 
 43 H       -6.1600    -8.7180    -0.7330 H     1 <1>   0.0800 
 44 H       -7.7890    -8.7770    -1.3540 H     1 <1>   0.0800 
 45 H       -7.5140    -8.5110     0.3590 H     1 <1>   0.0800 
 46 H       -0.9260    -8.2220     1.7450 H     1 <1>   0.0800 
 47 H       -1.7710    -8.4100     3.2690 H     1 <1>   0.0800 
 48 H       -1.8210    -6.0460     3.6210 H     1 <1>   0.0800 
 49 H       -0.2560    -6.2100     2.8520 H     1 <1>   0.0800 
@<TRIPOS>BOND
  1   1   2  2   
  2   2   3  am  
  3   2   4  1   
  4   3   5  1   
  5   3   6  1   
  6   4   7  2   
  7   4  29  1   
  8   5   8  2   
  9   6   9  ar  
 10   6  10  ar  
 11   7   8  1   
 12   7  30  1   
 13   8  11  1   
 14   9  12  ar  
 15   9  31  1   
 16  10  13  ar  
 17  10  32  1   
 18  11  14  1   
 19  12  15  ar  
 20  12  33  1   
 21  13  15  ar  
 22  13  34  1   
 23  14  16  ar  
 24  14  17  ar  
 25  15  35  1   
 26  16  18  ar  
 27  17  19  ar  
 28  18  20  ar  
 29  18  21  1   
 30  19  20  ar  
 31  19  22  1   
 32  21  23  1   
 33  21  24  1   
 34  22  25  1   
 35  22  26  1   
 36  23  27  1   
 37  23  36  1   
 38  23  37  1   
 39  24  28  1   
 40  24  38  1   
 41  24  39  1   
 42  25  40  1   
 43  25  41  1   
 44  25  42  1   
 45  26  43  1   
 46  26  44  1   
 47  26  45  1   
 48  27  28  1   
 49  27  46  1   
 50  27  47  1   
 51  28  48  1   
 52  28  49  1   
@<TRIPOS>SUBSTRUCTURE
  1 ****  16 GROUP 4 **** **** 0

# MOE 2024.06 (io_trps.svl 2023.06)
