@<TRIPOS>MOLECULE
1-(4-Methoxy-3-methyl-benzenesulfonyl)-piperidine-4-carboxylic acid m-tolylamide
54 56 1 0 0 
SMALL
USER_CHARGES


@<TRIPOS>ATOM
  1 S       -0.2730     0.0620     2.5230 S.o2  1 <1>   1.4470 
  2 O        0.4100    -0.9910     3.2450 O.2   1 <1>  -0.6500 
  3 O       -0.9830     1.0790     3.2670 O.2   1 <1>  -0.6500 
  4 N        0.9140     0.8500     1.6010 N.am  1 <1>  -0.8490 
  5 C       -1.3750    -0.6500     1.2710 C.ar  1 <1>  -0.0090 
  6 C        1.7860    -0.0990     0.9030 C.3   1 <1>   0.1960 
  7 C        1.6810     1.7950     2.4160 C.3   1 <1>   0.1960 
  8 C       -1.7830     0.0940     0.1700 C.ar  1 <1>  -0.1500 
  9 C       -1.8440    -1.9540     1.3810 C.ar  1 <1>  -0.1500 
 10 C        2.7370     0.6480    -0.0350 C.3   1 <1>  -0.1600 
 11 C        2.6410     2.6000     1.5360 C.3   1 <1>  -0.1600 
 12 C       -2.6200    -0.4350    -0.7990 C.ar  1 <1>  -0.1430 
 13 C       -2.6810    -2.5000     0.4250 C.ar  1 <1>  -0.1500 
 14 C        3.5780     1.6810     0.7350 C.3   1 <1>  -0.0190 
 15 C       -3.0750    -1.7430    -0.6750 C.ar  1 <1>   0.0820 
 16 C       -3.0330     0.4210    -1.9880 C.3   1 <1>  -0.0970 
 17 C        4.4880     2.4820    -0.1950 C.2   1 <1>   0.5690 
 18 O       -3.8930    -2.2240    -1.6470 O.3   1 <1>  -0.3630 
 19 O        3.9940     3.0690    -1.1270 O.2   1 <1>  -0.5700 
 20 N        5.8300     2.4850     0.0800 N.am  1 <1>  -0.5470 
 21 C       -4.4300    -3.5270    -1.5910 C.3   1 <1>   0.0400 
 22 C        6.9100     3.1200    -0.5540 C.ar  1 <1>   0.1170 
 23 C        8.1950     2.6550    -0.2940 C.ar  1 <1>  -0.1500 
 24 C        6.7630     4.2020    -1.4170 C.ar  1 <1>  -0.1500 
 25 C        9.3060     3.2420    -0.8760 C.ar  1 <1>  -0.1430 
 26 C        7.8660     4.7940    -2.0020 C.ar  1 <1>  -0.1500 
 27 C        9.1360     4.3160    -1.7330 C.ar  1 <1>  -0.1500 
 28 C       10.7030     2.7230    -0.5840 C.3   1 <1>  -0.0970 
 29 H        1.1900    -0.7810     0.3190 H     1 <1>   0.0800 
 30 H        2.3530    -0.6750     1.6170 H     1 <1>   0.0800 
 31 H        2.2270     1.2610     3.1770 H     1 <1>   0.0800 
 32 H        1.0090     2.4820     2.9050 H     1 <1>   0.0800 
 33 H       -1.4320     1.1080     0.0780 H     1 <1>   0.1500 
 34 H       -1.5470    -2.5500     2.2280 H     1 <1>   0.1500 
 35 H        2.1560     1.1410    -0.7950 H     1 <1>   0.0800 
 36 H        3.3850    -0.0570    -0.5250 H     1 <1>   0.0800 
 37 H        3.2200     3.2630     2.1530 H     1 <1>   0.0800 
 38 H        2.0620     3.2060     0.8600 H     1 <1>   0.0800 
 39 H       -3.0150    -3.5110     0.5550 H     1 <1>   0.1500 
 40 H        4.1940     1.1450     1.4360 H     1 <1>   0.0800 
 41 H       -2.5800     1.3950    -1.9450 H     1 <1>   0.0800 
 42 H       -4.1020     0.5380    -1.9960 H     1 <1>   0.0800 
 43 H       -2.7330    -0.0580    -2.9030 H     1 <1>   0.0800 
 44 H        6.1060     1.9020     0.8660 H     1 <1>   0.3700 
 45 H       -5.0500    -3.6690    -2.4580 H     1 <1>   0.0800 
 46 H       -5.0220    -3.6220    -0.6980 H     1 <1>   0.0800 
 47 H       -3.6230    -4.2380    -1.5990 H     1 <1>   0.0800 
 48 H        8.3270     1.8210     0.3700 H     1 <1>   0.1500 
 49 H        5.7870     4.5930    -1.6360 H     1 <1>   0.1500 
 50 H        7.7360     5.6290    -2.6680 H     1 <1>   0.1500 
 51 H        9.9890     4.7840    -2.1920 H     1 <1>   0.1500 
 52 H       10.6650     1.7440    -0.1430 H     1 <1>   0.0800 
 53 H       11.2040     3.3900     0.0940 H     1 <1>   0.0800 
 54 H       11.2710     2.6620    -1.4950 H     1 <1>   0.0800 
@<TRIPOS>BOND
  1   1   2  2   
  2   1   3  2   
  3   1   4  am  
  4   1   5  1   
  5   4   6  1   
  6   4   7  1   
  7   5   8  ar  
  8   5   9  ar  
  9   6  10  1   
 10   6  29  1   
 11   6  30  1   
 12   7  11  1   
 13   7  31  1   
 14   7  32  1   
 15   8  12  ar  
 16   8  33  1   
 17   9  13  ar  
 18   9  34  1   
 19  10  14  1   
 20  10  35  1   
 21  10  36  1   
 22  11  14  1   
 23  11  37  1   
 24  11  38  1   
 25  12  15  ar  
 26  12  16  1   
 27  13  15  ar  
 28  13  39  1   
 29  14  17  1   
 30  14  40  1   
 31  15  18  1   
 32  16  41  1   
 33  16  42  1   
 34  16  43  1   
 35  17  19  2   
 36  17  20  am  
 37  18  21  1   
 38  20  22  1   
 39  20  44  1   
 40  21  45  1   
 41  21  46  1   
 42  21  47  1   
 43  22  23  ar  
 44  22  24  ar  
 45  23  25  ar  
 46  23  48  1   
 47  24  26  ar  
 48  24  49  1   
 49  25  27  ar  
 50  25  28  1   
 51  26  27  ar  
 52  26  50  1   
 53  27  51  1   
 54  28  52  1   
 55  28  53  1   
 56  28  54  1   
@<TRIPOS>SUBSTRUCTURE
  1 ****  10 GROUP 4 **** **** 0

# MOE 2024.06 (io_trps.svl 2023.06)
