@<TRIPOS>MOLECULE
2-[2-Chloro-4-(piperidine-1-sulfonyl)-phenoxy]-1-pyrrolidin-1-yl-ethanone
48 50 1 0 0 
SMALL
USER_CHARGES


@<TRIPOS>ATOM
  1 CL       1.6880    -1.2270    -1.5170 Cl    1 <1>  -0.1770 
  2 C        0.8470    -2.5490    -0.7370 C.ar  1 <1>   0.1770 
  3 C        1.3220    -3.0750     0.4580 C.ar  1 <1>   0.0830 
  4 C       -0.2840    -3.0550    -1.3470 C.ar  1 <1>  -0.1500 
  5 O        2.4480    -2.5490     0.9990 O.3   1 <1>  -0.3630 
  6 C        0.6250    -4.1260     1.0440 C.ar  1 <1>  -0.1500 
  7 C       -0.9820    -4.1100    -0.7720 C.ar  1 <1>  -0.0090 
  8 C        3.2520    -3.3150     1.8840 C.3   1 <1>   0.1810 
  9 C       -0.5080    -4.6310     0.4280 C.ar  1 <1>  -0.1500 
 10 S       -2.4610    -4.8000    -1.5610 S.o2  1 <1>   1.4470 
 11 C        4.6300    -2.6910     2.0780 C.2   1 <1>   0.5690 
 12 O       -2.9430    -3.8950    -2.5820 O.2   1 <1>  -0.6500 
 13 O       -2.1930    -6.1810    -1.8980 O.2   1 <1>  -0.6500 
 14 N       -3.5970    -4.7890    -0.3040 N.am  1 <1>  -0.8490 
 15 O        4.9720    -2.4340     3.2100 O.2   1 <1>  -0.5700 
 16 N        5.4680    -2.4770     1.0140 N.am  1 <1>  -0.6600 
 17 C       -4.0760    -3.4340    -0.0060 C.3   1 <1>   0.1960 
 18 C       -4.7200    -5.6870    -0.5940 C.3   1 <1>   0.1960 
 19 C        5.1580    -2.7140    -0.4150 C.3   1 <1>   0.1400 
 20 C        6.8300    -1.9300     1.1780 C.3   1 <1>   0.1400 
 21 C       -4.9740    -3.4490     1.2340 C.3   1 <1>  -0.1600 
 22 C       -5.6560    -5.7800     0.6160 C.3   1 <1>  -0.1600 
 23 C        6.3560    -2.1540    -1.1760 C.3   1 <1>  -0.1600 
 24 C        7.5030    -2.1650    -0.1690 C.3   1 <1>  -0.1600 
 25 C       -6.1620    -4.3990     1.0470 C.3   1 <1>  -0.1600 
 26 H       -0.6190    -2.6250    -2.2750 H     1 <1>   0.1500 
 27 H        0.9430    -4.5570     1.9760 H     1 <1>   0.1500 
 28 H        3.3700    -4.3010     1.4750 H     1 <1>   0.0800 
 29 H        2.7500    -3.3690     2.8320 H     1 <1>   0.0800 
 30 H       -1.0430    -5.4480     0.8860 H     1 <1>   0.1500 
 31 H       -4.6260    -3.0440    -0.8480 H     1 <1>   0.0800 
 32 H       -3.2380    -2.7830     0.1780 H     1 <1>   0.0800 
 33 H       -4.3520    -6.6750    -0.8170 H     1 <1>   0.0800 
 34 H       -5.2610    -5.3290    -1.4550 H     1 <1>   0.0800 
 35 H        4.2530    -2.2090    -0.7060 H     1 <1>   0.0800 
 36 H        5.0610    -3.7720    -0.5880 H     1 <1>   0.0800 
 37 H        7.3510    -2.4260     1.9800 H     1 <1>   0.0800 
 38 H        6.7590    -0.8770     1.3910 H     1 <1>   0.0800 
 39 H       -5.3330    -2.4540     1.4270 H     1 <1>   0.0800 
 40 H       -4.3890    -3.7590     2.0830 H     1 <1>   0.0800 
 41 H       -5.1220    -6.2410     1.4290 H     1 <1>   0.0800 
 42 H       -6.4910    -6.4120     0.3730 H     1 <1>   0.0800 
 43 H        6.1370    -1.1420    -1.4670 H     1 <1>   0.0800 
 44 H        6.5760    -2.7310    -2.0560 H     1 <1>   0.0800 
 45 H        7.9740    -3.1320    -0.1590 H     1 <1>   0.0800 
 46 H        8.2440    -1.4150    -0.3810 H     1 <1>   0.0800 
 47 H       -6.8180    -4.0060     0.2880 H     1 <1>   0.0800 
 48 H       -6.7200    -4.4790     1.9640 H     1 <1>   0.0800 
@<TRIPOS>BOND
  1   1   2  1   
  2   2   3  ar  
  3   2   4  ar  
  4   3   5  1   
  5   3   6  ar  
  6   4   7  ar  
  7   4  26  1   
  8   5   8  1   
  9   6   9  ar  
 10   6  27  1   
 11   7   9  ar  
 12   7  10  1   
 13   8  11  1   
 14   8  28  1   
 15   8  29  1   
 16   9  30  1   
 17  10  12  2   
 18  10  13  2   
 19  10  14  am  
 20  11  15  2   
 21  11  16  am  
 22  14  17  1   
 23  14  18  1   
 24  16  19  1   
 25  16  20  1   
 26  17  21  1   
 27  17  31  1   
 28  17  32  1   
 29  18  22  1   
 30  18  33  1   
 31  18  34  1   
 32  19  23  1   
 33  19  35  1   
 34  19  36  1   
 35  20  24  1   
 36  20  37  1   
 37  20  38  1   
 38  21  25  1   
 39  21  39  1   
 40  21  40  1   
 41  22  25  1   
 42  22  41  1   
 43  22  42  1   
 44  23  24  1   
 45  23  43  1   
 46  23  44  1   
 47  24  45  1   
 48  24  46  1   
 49  25  47  1   
 50  25  48  1   
@<TRIPOS>SUBSTRUCTURE
  1 ****   3 GROUP 4 **** **** 0

# MOE 2024.06 (io_trps.svl 2023.06)
