@<TRIPOS>MOLECULE
2-(4-Fluoro-benzyl)-3,8,8-trimethyl-8,9-dihydro-2H,6H-7-oxa-11-thia-2,4,10-triaz
49 53 1 0 0 
SMALL
USER_CHARGES


@<TRIPOS>ATOM
  1 S        0.5430     0.3110    -0.6460 S.3   1 <1>  -0.0800 
  2 C       -0.4470     1.6510    -0.0540 C.ar  1 <1>   0.2970 
  3 C        1.9670     0.9140     0.2160 C.2   1 <1>  -0.0450 
  4 N       -1.7230     1.7750    -0.3770 N.ar  1 <1>  -0.5670 
  5 C        0.3140     2.4860     0.7550 C.ar  1 <1>   0.0000 
  6 C        3.2550     0.3440     0.2400 C.2   1 <1>   0.7150 
  7 C        1.6750     2.0480     0.8910 C.2   1 <1>   0.1250 
  8 C       -2.3000     2.8390     0.1590 C.ar  1 <1>   0.1660 
  9 C       -0.3230     3.5890     1.2980 C.ar  1 <1>  -0.1500 
 10 O        3.5420    -0.6800    -0.3670 O.2   1 <1>  -0.5700 
 11 N        4.1950     1.0150     0.9980 N.am  1 <1>  -0.4200 
 12 N        2.6380     2.6880     1.6250 N.2   1 <1>  -0.5750 
 13 C       -1.6570     3.7620     0.9880 C.ar  1 <1>  -0.1430 
 14 C       -3.7680     3.0290    -0.1600 C.3   1 <1>  -0.0170 
 15 C        3.8220     2.1810     1.6570 C.2   1 <1>   0.4490 
 16 C        5.5750     0.4500     1.0770 C.3   1 <1>   0.2840 
 17 C       -2.4040     4.9690     1.5410 C.3   1 <1>   0.2640 
 18 C       -4.2360     4.4730     0.0810 C.3   1 <1>   0.2800 
 19 C        4.8510     2.9350     2.4800 C.3   1 <1>  -0.1790 
 20 C        6.5310     1.1970     0.1530 C.ar  1 <1>  -0.1440 
 21 O       -3.7870     4.8830     1.3350 O.3   1 <1>  -0.5600 
 22 C       -3.7420     5.4460    -1.0020 C.3   1 <1>  -0.2400 
 23 C       -5.7630     4.5350     0.1510 C.3   1 <1>  -0.2400 
 24 C        6.2890     1.2410    -1.2160 C.ar  1 <1>  -0.1500 
 25 C        7.6580     1.8260     0.6740 C.ar  1 <1>  -0.1500 
 26 C        7.1530     1.9180    -2.0600 C.ar  1 <1>  -0.1500 
 27 C        8.5290     2.5060    -0.1610 C.ar  1 <1>  -0.1500 
 28 C        8.2590     2.5400    -1.5140 C.ar  1 <1>   0.1900 
 29 F        9.0770     3.1810    -2.3050 F     1 <1>  -0.1900 
 30 H        0.2230     4.2680     1.9300 H     1 <1>   0.1500 
 31 H       -4.3310     2.3570     0.4600 H     1 <1>   0.0800 
 32 H       -3.9520     2.7590    -1.1840 H     1 <1>   0.0800 
 33 H        5.5760    -0.5910     0.8060 H     1 <1>   0.0800 
 34 H        5.9250     0.4980     2.0920 H     1 <1>   0.0800 
 35 H       -2.0500     5.8730     1.0780 H     1 <1>   0.0800 
 36 H       -2.2460     5.0460     2.6020 H     1 <1>   0.0800 
 37 H        4.3900     3.7790     2.9600 H     1 <1>   0.0800 
 38 H        5.2640     2.3050     3.2440 H     1 <1>   0.0800 
 39 H        5.6310     3.3070     1.8440 H     1 <1>   0.0800 
 40 H       -2.6800     5.3710    -1.1480 H     1 <1>   0.0800 
 41 H       -3.9970     6.4570    -0.7370 H     1 <1>   0.0800 
 42 H       -4.2120     5.2150    -1.9410 H     1 <1>   0.0800 
 43 H       -6.1260     3.9030     0.9420 H     1 <1>   0.0800 
 44 H       -6.1950     4.2050    -0.7760 H     1 <1>   0.0800 
 45 H       -6.0850     5.5430     0.3380 H     1 <1>   0.0800 
 46 H        5.4280     0.7470    -1.6350 H     1 <1>   0.1500 
 47 H        7.8660     1.7930     1.7290 H     1 <1>   0.1500 
 48 H        6.9770     1.9630    -3.1200 H     1 <1>   0.1500 
 49 H        9.4030     3.0000     0.2250 H     1 <1>   0.1500 
@<TRIPOS>BOND
  1   1   2  1   
  2   1   3  1   
  3   2   4  ar  
  4   2   5  ar  
  5   3   6  1   
  6   3   7  2   
  7   4   8  ar  
  8   5   7  1   
  9   5   9  ar  
 10   6  10  2   
 11   6  11  am  
 12   7  12  1   
 13   8  13  ar  
 14   8  14  1   
 15   9  13  ar  
 16   9  30  1   
 17  11  15  1   
 18  11  16  1   
 19  12  15  2   
 20  13  17  1   
 21  14  18  1   
 22  14  31  1   
 23  14  32  1   
 24  15  19  1   
 25  16  20  1   
 26  16  33  1   
 27  16  34  1   
 28  17  21  1   
 29  17  35  1   
 30  17  36  1   
 31  18  21  1   
 32  18  22  1   
 33  18  23  1   
 34  19  37  1   
 35  19  38  1   
 36  19  39  1   
 37  20  24  ar  
 38  20  25  ar  
 39  22  40  1   
 40  22  41  1   
 41  22  42  1   
 42  23  43  1   
 43  23  44  1   
 44  23  45  1   
 45  24  26  ar  
 46  24  46  1   
 47  25  27  ar  
 48  25  47  1   
 49  26  28  ar  
 50  26  48  1   
 51  27  28  ar  
 52  27  49  1   
 53  28  29  1   
@<TRIPOS>SUBSTRUCTURE
  1 ****   7 GROUP 4 **** **** 0

# MOE 2024.06 (io_trps.svl 2023.06)
