@<TRIPOS>MOLECULE
6-(3,4-Dimethoxy-benzyl)-3-ethyl-[1,2,4]triazolo[3,4-b][1,3,4]thiadiazole
37 39 1 0 0 
SMALL
USER_CHARGES


@<TRIPOS>ATOM
  1 S       -0.0410     0.2570     0.6470 S.3   1 <1>  -0.1970 
  2 C        0.6180    -1.2640     0.0820 C.2   1 <1>   0.2420 
  3 C       -1.6510    -0.4960     0.6450 C.2   1 <1>   0.5300 
  4 N        1.7810    -1.7160    -0.2230 N.2   1 <1>  -0.3380 
  5 N       -0.3700    -2.1320    -0.0460 N.pl3 1 <1>   0.5050 
  6 N       -1.6630    -1.7130     0.2730 N.2   1 <1>  -0.6520 
  7 C       -2.7900     0.4070     1.0910 C.3   1 <1>   0.0450 
  8 N        1.5570    -2.9950    -0.5860 N.2   1 <1>  -0.3380 
  9 C        0.2810    -3.2240    -0.4760 C.2   1 <1>   0.0070 
 10 C       -4.1550    -0.2570     0.9730 C.ar  1 <1>  -0.1440 
 11 C       -0.4490    -4.5270    -0.7770 C.3   1 <1>   0.0200 
 12 C       -4.9490    -0.0350    -0.1430 C.ar  1 <1>  -0.1500 
 13 C       -4.6180    -1.0900     1.9810 C.ar  1 <1>  -0.1500 
 14 C        0.4930    -5.6610    -1.1980 C.3   1 <1>  -0.2400 
 15 C       -6.1930    -0.6330    -0.2570 C.ar  1 <1>   0.0830 
 16 C       -5.8530    -1.7060     1.8690 C.ar  1 <1>  -0.1500 
 17 O       -6.9260    -0.3360    -1.3580 O.3   1 <1>  -0.3630 
 18 C       -6.6390    -1.4980     0.7490 C.ar  1 <1>   0.0830 
 19 C       -8.1370     0.3550    -1.1390 C.3   1 <1>   0.0400 
 20 O       -7.8190    -2.1620     0.6820 O.3   1 <1>  -0.3630 
 21 C       -7.9320    -3.1330    -0.3340 C.3   1 <1>   0.0400 
 22 H       -2.7720     1.3000     0.4940 H     1 <1>   0.0800 
 23 H       -2.6200     0.6950     2.1120 H     1 <1>   0.0800 
 24 H       -1.1620    -4.3500    -1.5630 H     1 <1>   0.0800 
 25 H       -0.9940    -4.8290     0.1010 H     1 <1>   0.0800 
 26 H       -4.6170     0.6070    -0.9380 H     1 <1>   0.1500 
 27 H       -4.0190    -1.2730     2.8570 H     1 <1>   0.1500 
 28 H        1.0310    -5.3850    -2.0880 H     1 <1>   0.0800 
 29 H       -0.0670    -6.5570    -1.3950 H     1 <1>   0.0800 
 30 H        1.2050    -5.8620    -0.4160 H     1 <1>   0.0800 
 31 H       -6.2100    -2.3570     2.6460 H     1 <1>   0.1500 
 32 H       -8.5430     0.6320    -2.0950 H     1 <1>   0.0800 
 33 H       -7.9340     1.2350    -0.5550 H     1 <1>   0.0800 
 34 H       -8.8270    -0.2850    -0.6210 H     1 <1>   0.0800 
 35 H       -8.8670    -3.6480    -0.2050 H     1 <1>   0.0800 
 36 H       -7.1140    -3.8260    -0.2450 H     1 <1>   0.0800 
 37 H       -7.9090    -2.6500    -1.2940 H     1 <1>   0.0800 
@<TRIPOS>BOND
  1   1   2  1   
  2   1   3  1   
  3   2   4  2   
  4   2   5  1   
  5   3   6  2   
  6   3   7  1   
  7   4   8  1   
  8   5   6  1   
  9   5   9  1   
 10   7  10  1   
 11   7  22  1   
 12   7  23  1   
 13   8   9  2   
 14   9  11  1   
 15  10  12  ar  
 16  10  13  ar  
 17  11  14  1   
 18  11  24  1   
 19  11  25  1   
 20  12  15  ar  
 21  12  26  1   
 22  13  16  ar  
 23  13  27  1   
 24  14  28  1   
 25  14  29  1   
 26  14  30  1   
 27  15  17  1   
 28  15  18  ar  
 29  16  18  ar  
 30  16  31  1   
 31  17  19  1   
 32  18  20  1   
 33  19  32  1   
 34  19  33  1   
 35  19  34  1   
 36  20  21  1   
 37  21  35  1   
 38  21  36  1   
 39  21  37  1   
@<TRIPOS>SUBSTRUCTURE
  1 ****   6 GROUP 4 **** **** 0

# MOE 2024.06 (io_trps.svl 2023.06)
