@<TRIPOS>MOLECULE
8-(4-Benzyl-piperidin-1-yl)-7-ethyl-1,3-dimethyl-3,7-dihydro-purine-2,6-dione
56 59 1 0 0 
SMALL
USER_CHARGES


@<TRIPOS>ATOM
  1 O        1.4650    -0.3780    -0.3500 O.2   1 <1>  -0.5740 
  2 C        2.3450     0.4410    -0.1800 C.2   1 <1>   0.6870 
  3 N        2.0550     1.8000    -0.2420 N.am  1 <1>  -0.4250 
  4 N        3.6440     0.0180     0.0660 N.am  1 <1>  -0.4410 
  5 C        3.0560     2.7560    -0.1270 C.2   1 <1>   0.7000 
  6 C        0.6410     2.2280    -0.4840 C.3   1 <1>   0.0530 
  7 C        4.6280     0.9800     0.1870 C.2   1 <1>   0.4210 
  8 C        3.9650    -1.4380     0.1640 C.3   1 <1>   0.0530 
  9 O        2.7940     3.9430    -0.2230 O.2   1 <1>  -0.5740 
 10 C        4.3980     2.3060     0.1020 C.2   1 <1>   0.2710 
 11 N        5.9560     0.7850     0.4000 N.pl3 1 <1>  -0.7030 
 12 N        5.6470     2.9400     0.2800 N.pl3 1 <1>  -0.7670 
 13 C        6.5620     1.9720     0.4340 C.cat 1 <1>   1.0690 
 14 C        5.7590     4.4030     0.5170 C.3   1 <1>   0.3490 
 15 N        7.8940     2.0990     0.6010 N.pl3 1 <1>  -0.5960 
 16 C        5.3340     4.7070     1.9500 C.3   1 <1>  -0.2460 
 17 C        8.6960     1.1400     1.4140 C.3   1 <1>   0.1610 
 18 C        8.7260     3.0890    -0.1420 C.3   1 <1>   0.1610 
 19 C        9.6740     0.3800     0.5180 C.3   1 <1>  -0.1660 
 20 C        9.7380     2.3610    -1.0350 C.3   1 <1>  -0.1660 
 21 C       10.5900     1.3500    -0.2490 C.3   1 <1>  -0.0870 
 22 C       11.5590     0.6080    -1.1890 C.3   1 <1>  -0.0240 
 23 C       12.4470    -0.3700    -0.4330 C.ar  1 <1>  -0.1500 
 24 C       13.4800     0.1000     0.3630 C.ar  1 <1>  -0.1560 
 25 C       12.2320    -1.7370    -0.5290 C.ar  1 <1>  -0.1560 
 26 C       14.2840    -0.7840     1.0610 C.ar  1 <1>  -0.1560 
 27 C       13.0360    -2.6220     0.1690 C.ar  1 <1>  -0.1560 
 28 C       14.0620    -2.1460     0.9650 C.ar  1 <1>  -0.1560 
 29 H       -0.0420     1.5600     0.0120 H     1 <1>   0.0730 
 30 H        0.4350     2.2130    -1.5400 H     1 <1>   0.0730 
 31 H        0.4690     3.2220    -0.1070 H     1 <1>   0.0730 
 32 H        3.0870    -2.0010     0.4360 H     1 <1>   0.0730 
 33 H        4.7140    -1.6080     0.9170 H     1 <1>   0.0730 
 34 H        4.3200    -1.7960    -0.7860 H     1 <1>   0.0730 
 35 H        6.4480    -0.1020     0.4510 H     1 <1>   0.4450 
 36 H        5.1300     4.9380    -0.1760 H     1 <1>   0.0730 
 37 H        6.7660     4.7480     0.3780 H     1 <1>   0.0730 
 38 H        4.3060     4.4380     2.1110 H     1 <1>   0.0730 
 39 H        5.4300     5.7620     2.1330 H     1 <1>   0.0730 
 40 H        5.9600     4.1860     2.6520 H     1 <1>   0.0730 
 41 H        8.0600     0.4450     1.9350 H     1 <1>   0.0730 
 42 H        9.2510     1.6910     2.1560 H     1 <1>   0.0730 
 43 H        9.2450     3.7190     0.5610 H     1 <1>   0.0730 
 44 H        8.1150     3.7060    -0.7760 H     1 <1>   0.0730 
 45 H        9.1340    -0.2440    -0.1720 H     1 <1>   0.0730 
 46 H       10.2720    -0.2650     1.1390 H     1 <1>   0.0730 
 47 H       10.3840     3.0900    -1.4930 H     1 <1>   0.0730 
 48 H        9.2100     1.8560    -1.8250 H     1 <1>   0.0730 
 49 H       11.1810     1.8940     0.4690 H     1 <1>   0.0730 
 50 H       12.1880     1.3200    -1.6920 H     1 <1>   0.0730 
 51 H       11.0040     0.0810    -1.9460 H     1 <1>   0.0730 
 52 H       13.6640     1.1560     0.4430 H     1 <1>   0.1440 
 53 H       11.4400    -2.1210    -1.1460 H     1 <1>   0.1440 
 54 H       15.0840    -0.4130     1.6770 H     1 <1>   0.1440 
 55 H       12.8660    -3.6820     0.0900 H     1 <1>   0.1440 
 56 H       14.6870    -2.8330     1.5070 H     1 <1>   0.1440 
@<TRIPOS>BOND
  1   1   2  2   
  2   2   3  am  
  3   2   4  am  
  4   3   5  am  
  5   3   6  1   
  6   4   7  1   
  7   4   8  1   
  8   5   9  2   
  9   5  10  1   
 10   6  29  1   
 11   6  30  1   
 12   6  31  1   
 13   7  10  2   
 14   7  11  1   
 15   8  32  1   
 16   8  33  1   
 17   8  34  1   
 18  10  12  1   
 19  11  13  ar  
 20  11  35  1   
 21  12  13  ar  
 22  12  14  1   
 23  13  15  ar  
 24  14  16  1   
 25  14  36  1   
 26  14  37  1   
 27  15  17  1   
 28  15  18  1   
 29  16  38  1   
 30  16  39  1   
 31  16  40  1   
 32  17  19  1   
 33  17  41  1   
 34  17  42  1   
 35  18  20  1   
 36  18  43  1   
 37  18  44  1   
 38  19  21  1   
 39  19  45  1   
 40  19  46  1   
 41  20  21  1   
 42  20  47  1   
 43  20  48  1   
 44  21  22  1   
 45  21  49  1   
 46  22  23  1   
 47  22  50  1   
 48  22  51  1   
 49  23  24  ar  
 50  23  25  ar  
 51  24  26  ar  
 52  24  52  1   
 53  25  27  ar  
 54  25  53  1   
 55  26  28  ar  
 56  26  54  1   
 57  27  28  ar  
 58  27  55  1   
 59  28  56  1   
@<TRIPOS>SUBSTRUCTURE
  1 ****  13 GROUP 4 **** **** 0

# MOE 2024.06 (io_trps.svl 2023.06)
