@<TRIPOS>MOLECULE
2-(4-Methoxy-phenoxy)-N-[2-(4-methyl-piperazin-1-yl)-phenyl]-acetamide
52 54 1 0 0 
SMALL
USER_CHARGES


@<TRIPOS>ATOM
  1 O       -0.6480     0.1160    -0.3680 O.2   1 <1>  -0.5700 
  2 C        0.4840    -0.1400    -0.6980 C.2   1 <1>   0.5690 
  3 N        1.0610    -1.3660    -0.5270 N.am  1 <1>  -0.5470 
  4 C        1.3090     0.9810    -1.3250 C.3   1 <1>   0.1810 
  5 C        0.5830    -2.6160    -0.0960 C.ar  1 <1>   0.1170 
  6 O        2.5480     0.5220    -1.8620 O.3   1 <1>  -0.3630 
  7 C        1.5280    -3.6260     0.1470 C.ar  1 <1>   0.1000 
  8 C       -0.7680    -2.8910     0.0720 C.ar  1 <1>  -0.1500 
  9 C        3.6670     0.4020    -1.1050 C.ar  1 <1>   0.0830 
 10 N        2.9060    -3.3690     0.0050 N.pl3 1 <1>  -0.8380 
 11 C        1.0830    -4.8870     0.5310 C.ar  1 <1>  -0.1500 
 12 C       -1.1920    -4.1470     0.4670 C.ar  1 <1>  -0.1500 
 13 C        4.8530     0.2030    -1.7920 C.ar  1 <1>  -0.1500 
 14 C        3.6770     0.4650     0.2860 C.ar  1 <1>  -0.1500 
 15 C        3.5210    -3.8800    -1.2580 C.3   1 <1>   0.2090 
 16 C        3.7280    -3.6060     1.2340 C.3   1 <1>   0.2090 
 17 C       -0.2660    -5.1480     0.6930 C.ar  1 <1>  -0.1500 
 18 C        6.0420     0.0460    -1.1040 C.ar  1 <1>  -0.1500 
 19 C        4.8680     0.3130     0.9760 C.ar  1 <1>  -0.1500 
 20 C        4.9840    -3.4080    -1.4050 C.3   1 <1>   0.3430 
 21 C        5.1940    -3.1610     1.0440 C.3   1 <1>   0.3430 
 22 C        6.0500     0.0880     0.2800 C.ar  1 <1>   0.0830 
 23 N        5.8260    -3.7390    -0.1970 N.4   1 <1>  -0.9590 
 24 O        7.2280    -0.1290     0.9100 O.3   1 <1>  -0.3630 
 25 C        7.2220    -3.2300    -0.3530 C.3   1 <1>   0.2630 
 26 C        7.5670     0.7030     2.0010 C.3   1 <1>   0.0400 
 27 H        2.0610    -1.4060    -0.7360 H     1 <1>   0.3700 
 28 H        1.4960     1.7630    -0.6130 H     1 <1>   0.0800 
 29 H        0.7460     1.3970    -2.1400 H     1 <1>   0.0800 
 30 H       -1.5030    -2.1280    -0.1070 H     1 <1>   0.1500 
 31 H        1.7880    -5.6760     0.7050 H     1 <1>   0.1500 
 32 H       -2.2430    -4.3430     0.5930 H     1 <1>   0.1500 
 33 H        4.8380     0.1830    -2.8690 H     1 <1>   0.1500 
 34 H        2.7750     0.6260     0.8490 H     1 <1>   0.1500 
 35 H        2.9470    -3.5220    -2.0960 H     1 <1>   0.0800 
 36 H        3.4810    -4.9560    -1.2700 H     1 <1>   0.0800 
 37 H        3.7050    -4.6500     1.4930 H     1 <1>   0.0800 
 38 H        3.2960    -3.0560     2.0530 H     1 <1>   0.0800 
 39 H       -0.5970    -6.1270     0.9950 H     1 <1>   0.1500 
 40 H        6.9660    -0.0950    -1.6370 H     1 <1>   0.1500 
 41 H        4.8620     0.3640     2.0500 H     1 <1>   0.1500 
 42 H        4.9750    -2.3410    -1.5530 H     1 <1>   0.0800 
 43 H        5.4120    -3.8590    -2.2850 H     1 <1>   0.0800 
 44 H        5.7630    -3.4440     1.9130 H     1 <1>   0.0800 
 45 H        5.2070    -2.0890     0.9820 H     1 <1>   0.0800 
 46 H        5.8460    -4.7630    -0.0940 H     1 <1>   0.4500 
 47 H        7.2210    -2.1570    -0.4510 H     1 <1>   0.0800 
 48 H        7.6820    -3.6550    -1.2300 H     1 <1>   0.0800 
 49 H        7.8150    -3.4910     0.5080 H     1 <1>   0.0800 
 50 H        8.6100     0.5610     2.2220 H     1 <1>   0.0800 
 51 H        6.9750     0.4310     2.8560 H     1 <1>   0.0800 
 52 H        7.3910     1.7290     1.7280 H     1 <1>   0.0800 
@<TRIPOS>BOND
  1   1   2  2   
  2   2   3  am  
  3   2   4  1   
  4   3   5  1   
  5   3  27  1   
  6   4   6  1   
  7   4  28  1   
  8   4  29  1   
  9   5   7  ar  
 10   5   8  ar  
 11   6   9  1   
 12   7  10  1   
 13   7  11  ar  
 14   8  12  ar  
 15   8  30  1   
 16   9  13  ar  
 17   9  14  ar  
 18  10  15  1   
 19  10  16  1   
 20  11  17  ar  
 21  11  31  1   
 22  12  17  ar  
 23  12  32  1   
 24  13  18  ar  
 25  13  33  1   
 26  14  19  ar  
 27  14  34  1   
 28  15  20  1   
 29  15  35  1   
 30  15  36  1   
 31  16  21  1   
 32  16  37  1   
 33  16  38  1   
 34  17  39  1   
 35  18  22  ar  
 36  18  40  1   
 37  19  22  ar  
 38  19  41  1   
 39  20  23  1   
 40  20  42  1   
 41  20  43  1   
 42  21  23  1   
 43  21  44  1   
 44  21  45  1   
 45  22  24  1   
 46  23  25  1   
 47  23  46  1   
 48  24  26  1   
 49  25  47  1   
 50  25  48  1   
 51  25  49  1   
 52  26  50  1   
 53  26  51  1   
 54  26  52  1   
@<TRIPOS>SUBSTRUCTURE
  1 ****  10 GROUP 4 **** **** 0

# MOE 2024.06 (io_trps.svl 2023.06)
