@<TRIPOS>MOLECULE
5-Oxo-1-p-tolyl-pyrrolidine-3-carboxylic acid (4-tert-butylsulfamoyl-phenyl)-ami
57 59 1 0 0 
SMALL
USER_CHARGES


@<TRIPOS>ATOM
  1 S       -0.8870     0.8240     0.9300 S.o2  1 <1>   1.4470 
  2 O        0.0610     0.9890     2.0080 O.2   1 <1>  -0.6500 
  3 O       -1.9390     1.7950     0.7310 O.2   1 <1>  -0.6500 
  4 N        0.0740     0.7260    -0.4450 N.am  1 <1>  -0.9140 
  5 C       -1.6220    -0.8310     1.0270 C.ar  1 <1>  -0.0090 
  6 C        0.4360     1.9210    -1.1630 C.3   1 <1>   0.3560 
  7 C       -2.2500    -1.4050    -0.0730 C.ar  1 <1>  -0.1500 
  8 C       -1.5930    -1.5690     2.2050 C.ar  1 <1>  -0.1500 
  9 C        1.5980     1.5020    -2.0620 C.3   1 <1>  -0.2400 
 10 C       -0.7220     2.3760    -2.0520 C.3   1 <1>  -0.2400 
 11 C        0.9140     3.0400    -0.2350 C.3   1 <1>  -0.2400 
 12 C       -2.8190    -2.6640    -0.0030 C.ar  1 <1>  -0.1500 
 13 C       -2.1600    -2.8290     2.2790 C.ar  1 <1>  -0.1500 
 14 C       -2.7810    -3.4010     1.1760 C.ar  1 <1>   0.1170 
 15 N       -3.3510    -4.6770     1.3050 N.am  1 <1>  -0.5470 
 16 C       -3.6400    -5.6240     0.3590 C.2   1 <1>   0.5690 
 17 O       -3.3780    -5.4940    -0.8100 O.2   1 <1>  -0.5700 
 18 C       -4.2920    -6.9200     0.8230 C.3   1 <1>  -0.0190 
 19 C       -4.8530    -7.7750    -0.3240 C.3   1 <1>   0.1400 
 20 C       -5.4810    -6.7320     1.7780 C.3   1 <1>  -0.0990 
 21 N       -6.0040    -8.4870     0.2720 N.am  1 <1>  -0.4770 
 22 C       -6.3730    -7.8950     1.4450 C.2   1 <1>   0.5690 
 23 C       -6.6630    -9.5220    -0.4220 C.ar  1 <1>   0.1170 
 24 O       -7.2810    -8.2140     2.1710 O.2   1 <1>  -0.5700 
 25 C       -5.9460   -10.5000    -1.1050 C.ar  1 <1>  -0.1500 
 26 C       -8.0520    -9.5910    -0.4510 C.ar  1 <1>  -0.1500 
 27 C       -6.5940   -11.5040    -1.8020 C.ar  1 <1>  -0.1500 
 28 C       -8.7030   -10.5950    -1.1460 C.ar  1 <1>  -0.1500 
 29 C       -7.9780   -11.5560    -1.8300 C.ar  1 <1>  -0.1430 
 30 C       -8.6920   -12.6580    -2.5910 C.3   1 <1>  -0.0970 
 31 H        0.9470     0.3640    -0.0760 H     1 <1>   0.4200 
 32 H       -2.2920    -0.8540    -0.9980 H     1 <1>   0.1500 
 33 H       -1.1160    -1.1480     3.0750 H     1 <1>   0.1500 
 34 H        1.2960     0.7060    -2.7200 H     1 <1>   0.0800 
 35 H        2.4370     1.1740    -1.4760 H     1 <1>   0.0800 
 36 H        1.9180     2.3310    -2.6670 H     1 <1>   0.0800 
 37 H       -1.0850     1.5560    -2.6450 H     1 <1>   0.0800 
 38 H       -0.3920     3.1540    -2.7160 H     1 <1>   0.0800 
 39 H       -1.5320     2.7750    -1.4740 H     1 <1>   0.0800 
 40 H        0.1040     3.4350     0.3520 H     1 <1>   0.0800 
 41 H        1.3090     3.8530    -0.8170 H     1 <1>   0.0800 
 42 H        1.6890     2.6900     0.4230 H     1 <1>   0.0800 
 43 H       -3.2980    -3.0670    -0.8760 H     1 <1>   0.1500 
 44 H       -2.1140    -3.3700     3.2070 H     1 <1>   0.1500 
 45 H       -3.5440    -4.9510     2.2660 H     1 <1>   0.3700 
 46 H       -3.5410    -7.5070     1.3200 H     1 <1>   0.0800 
 47 H       -4.1080    -8.4570    -0.6930 H     1 <1>   0.0800 
 48 H       -5.2110    -7.1620    -1.1340 H     1 <1>   0.0800 
 49 H       -6.0200    -5.8250     1.5680 H     1 <1>   0.0800 
 50 H       -5.1870    -6.7630     2.8100 H     1 <1>   0.0800 
 51 H       -4.8740   -10.4890    -1.0890 H     1 <1>   0.1500 
 52 H       -8.6300    -8.8540     0.0750 H     1 <1>   0.1500 
 53 H       -6.0170   -12.2480    -2.3220 H     1 <1>   0.1500 
 54 H       -9.7780   -10.6230    -1.1490 H     1 <1>   0.1500 
 55 H       -8.0990   -12.9830    -3.4270 H     1 <1>   0.0800 
 56 H       -9.6370   -12.3060    -2.9630 H     1 <1>   0.0800 
 57 H       -8.8650   -13.4960    -1.9400 H     1 <1>   0.0800 
@<TRIPOS>BOND
  1   1   2  2   
  2   1   3  2   
  3   1   4  am  
  4   1   5  1   
  5   4   6  1   
  6   4  31  1   
  7   5   7  ar  
  8   5   8  ar  
  9   6   9  1   
 10   6  10  1   
 11   6  11  1   
 12   7  12  ar  
 13   7  32  1   
 14   8  13  ar  
 15   8  33  1   
 16   9  34  1   
 17   9  35  1   
 18   9  36  1   
 19  10  37  1   
 20  10  38  1   
 21  10  39  1   
 22  11  40  1   
 23  11  41  1   
 24  11  42  1   
 25  12  14  ar  
 26  12  43  1   
 27  13  14  ar  
 28  13  44  1   
 29  14  15  1   
 30  15  16  am  
 31  15  45  1   
 32  16  17  2   
 33  16  18  1   
 34  18  19  1   
 35  18  20  1   
 36  18  46  1   
 37  19  21  1   
 38  19  47  1   
 39  19  48  1   
 40  20  22  1   
 41  20  49  1   
 42  20  50  1   
 43  21  22  am  
 44  21  23  1   
 45  22  24  2   
 46  23  25  ar  
 47  23  26  ar  
 48  25  27  ar  
 49  25  51  1   
 50  26  28  ar  
 51  26  52  1   
 52  27  29  ar  
 53  27  53  1   
 54  28  29  ar  
 55  28  54  1   
 56  29  30  1   
 57  30  55  1   
 58  30  56  1   
 59  30  57  1   
@<TRIPOS>SUBSTRUCTURE
  1 ****  16 GROUP 4 **** **** 0

# MOE 2024.06 (io_trps.svl 2023.06)
