@<TRIPOS>MOLECULE
3-[5-(5-Methyl-isoxazol-3-yl)-[1,3,4]oxadiazol-2-ylsulfanyl]-1-morpholin-4-yl-pr
38 40 1 0 0 
SMALL
USER_CHARGES


@<TRIPOS>ATOM
  1 S       -0.2820     0.2210    -0.4360 S.3   1 <1>  -0.2860 
  2 C       -1.8730     0.2980     0.3740 C.2   1 <1>   0.5340 
  3 C        0.5270    -1.2380     0.3560 C.3   1 <1>   0.0700 
  4 O       -2.6780     1.2550     0.0740 O.3   1 <1>  -0.2800 
  5 N       -2.3220    -0.5160     1.2450 N.2   1 <1>  -0.3380 
  6 C        1.8710    -1.4740    -0.3320 C.3   1 <1>  -0.0990 
  7 C       -3.7190     1.0160     0.8260 C.2   1 <1>   0.4790 
  8 N       -3.5350    -0.0500     1.5450 N.2   1 <1>  -0.3380 
  9 C        2.5430    -2.7040     0.2430 C.2   1 <1>   0.5690 
 10 C       -4.8670     1.8970     0.7760 C.2   1 <1>   0.2880 
 11 O        3.3240    -2.5230     1.1460 O.2   1 <1>  -0.5700 
 12 N        2.2640    -3.9610    -0.2320 N.am  1 <1>  -0.6600 
 13 N       -5.9650     1.7740     1.4650 N.2   1 <1>  -0.4100 
 14 C       -4.9650     3.0340    -0.0400 C.2   1 <1>  -0.1500 
 15 C        2.9740    -5.1620     0.3070 C.3   1 <1>   0.1400 
 16 C        1.2680    -4.3090    -1.2920 C.3   1 <1>   0.1400 
 17 O       -6.7330     2.7650     1.1240 O.3   1 <1>  -0.0190 
 18 C       -6.1750     3.5360     0.2330 C.2   1 <1>  -0.0400 
 19 C        1.9750    -6.2710     0.6710 C.3   1 <1>   0.1200 
 20 C        0.3670    -5.4690    -0.8350 C.3   1 <1>   0.1200 
 21 C       -6.9190     4.7470    -0.2890 C.3   1 <1>  -0.0600 
 22 O        1.1370    -6.5570    -0.4140 O.3   1 <1>  -0.5600 
 23 H       -0.1370    -2.0770     0.2410 H     1 <1>   0.0800 
 24 H        0.6540    -1.0120     1.4010 H     1 <1>   0.0800 
 25 H        2.5070    -0.6260    -0.1590 H     1 <1>   0.0800 
 26 H        1.7480    -1.5780    -1.3920 H     1 <1>   0.0800 
 27 H       -4.2130     3.3900    -0.7190 H     1 <1>   0.1500 
 28 H        3.5480    -4.9060     1.1810 H     1 <1>   0.0800 
 29 H        3.6570    -5.5320    -0.4380 H     1 <1>   0.0800 
 30 H        1.7920    -4.6050    -2.1840 H     1 <1>   0.0800 
 31 H        0.6460    -3.4680    -1.5370 H     1 <1>   0.0800 
 32 H        1.3680    -5.9740     1.5090 H     1 <1>   0.0800 
 33 H        2.5000    -7.1740     0.9280 H     1 <1>   0.0800 
 34 H       -0.2530    -5.8020    -1.6480 H     1 <1>   0.0800 
 35 H       -0.2670    -5.1610    -0.0210 H     1 <1>   0.0800 
 36 H       -6.3200     5.2690    -1.0130 H     1 <1>   0.0800 
 37 H       -7.1460     5.4130     0.5230 H     1 <1>   0.0800 
 38 H       -7.8380     4.4380    -0.7540 H     1 <1>   0.0800 
@<TRIPOS>BOND
  1   1   2  1   
  2   1   3  1   
  3   2   4  1   
  4   2   5  2   
  5   3   6  1   
  6   3  23  1   
  7   3  24  1   
  8   4   7  1   
  9   5   8  1   
 10   6   9  1   
 11   6  25  1   
 12   6  26  1   
 13   7   8  2   
 14   7  10  1   
 15   9  11  2   
 16   9  12  am  
 17  10  13  2   
 18  10  14  1   
 19  12  15  1   
 20  12  16  1   
 21  13  17  1   
 22  14  18  2   
 23  14  27  1   
 24  15  19  1   
 25  15  28  1   
 26  15  29  1   
 27  16  20  1   
 28  16  30  1   
 29  16  31  1   
 30  17  18  1   
 31  18  21  1   
 32  19  22  1   
 33  19  32  1   
 34  19  33  1   
 35  20  22  1   
 36  20  34  1   
 37  20  35  1   
 38  21  36  1   
 39  21  37  1   
 40  21  38  1   
@<TRIPOS>SUBSTRUCTURE
  1 ****   2 GROUP 4 **** **** 0

# MOE 2024.06 (io_trps.svl 2023.06)
