@<TRIPOS>MOLECULE
N-{1-[3-(4-tert-Butyl-phenyl)-[1,2,4]oxadiazol-5-yl]-ethyl}-3-methoxy-benzamide
53 55 1 0 0 
SMALL
USER_CHARGES


@<TRIPOS>ATOM
  1 O       -4.1780     1.5960    -3.5750 O.2   1 <1>  -0.5700 
  2 C       -4.3300     1.3180    -2.4060 C.2   1 <1>   0.5440 
  3 N       -5.3530     0.4720    -2.1240 N.am  1 <1>  -0.7300 
  4 C       -3.4770     1.8950    -1.3840 C.ar  1 <1>   0.0860 
  5 C       -6.0360     0.2700    -0.8280 C.3   1 <1>   0.4000 
  6 C       -2.8660     1.1090    -0.4100 C.ar  1 <1>  -0.1500 
  7 C       -3.2430     3.2680    -1.3460 C.ar  1 <1>  -0.1500 
  8 C       -6.0900    -1.2190    -0.4690 C.2   1 <1>   0.2980 
  9 C       -7.4220     0.9080    -0.9410 C.3   1 <1>  -0.2400 
 10 C       -2.0790     1.6640     0.5830 C.ar  1 <1>   0.0830 
 11 C       -2.4530     3.8370    -0.3630 C.ar  1 <1>  -0.1500 
 12 O       -4.9810    -1.7830    -0.0640 O.3   1 <1>  -0.0190 
 13 N       -7.1010    -1.9910    -0.5160 N.2   1 <1>  -0.5650 
 14 O       -1.5500     0.8070     1.4890 O.3   1 <1>  -0.3630 
 15 C       -1.8720     3.0400     0.6070 C.ar  1 <1>  -0.1500 
 16 N       -5.3140    -3.0130     0.1660 N.2   1 <1>  -0.4100 
 17 C       -6.5650    -3.1430    -0.1020 C.2   1 <1>   0.4620 
 18 C       -0.6760     1.2540     2.5020 C.3   1 <1>   0.0400 
 19 C       -7.3350    -4.3700     0.0180 C.ar  1 <1>   0.0540 
 20 C       -6.7480    -5.5580     0.4510 C.ar  1 <1>  -0.1500 
 21 C       -8.6930    -4.4230    -0.2920 C.ar  1 <1>  -0.1500 
 22 C       -7.4720    -6.7300     0.5690 C.ar  1 <1>  -0.1500 
 23 C       -9.4190    -5.5930    -0.1750 C.ar  1 <1>  -0.1500 
 24 C       -8.8280    -6.7740     0.2580 C.ar  1 <1>  -0.1430 
 25 C       -9.6810    -8.0570     0.3730 C.3   1 <1>   0.1430 
 26 C      -10.2640    -8.4110    -1.0030 C.3   1 <1>  -0.2400 
 27 C       -8.8790    -9.2750     0.8650 C.3   1 <1>  -0.2400 
 28 C      -10.8270    -7.8240     1.3690 C.3   1 <1>  -0.2400 
 29 H       -5.8460     0.0960    -2.9350 H     1 <1>   0.3700 
 30 H       -5.4970     0.7780    -0.0470 H     1 <1>   0.0800 
 31 H       -2.9980     0.0420    -0.4250 H     1 <1>   0.1500 
 32 H       -3.6880     3.8910    -2.1030 H     1 <1>   0.1500 
 33 H       -7.9970     0.4270    -1.7130 H     1 <1>   0.0800 
 34 H       -7.3320     1.9560    -1.1610 H     1 <1>   0.0800 
 35 H       -7.9480     0.7980    -0.0090 H     1 <1>   0.0800 
 36 H       -2.2900     4.9010    -0.3540 H     1 <1>   0.1500 
 37 H       -1.2660     3.5030     1.3630 H     1 <1>   0.1500 
 38 H       -0.3660     0.3990     3.0770 H     1 <1>   0.0800 
 39 H       -1.2000     1.9480     3.1350 H     1 <1>   0.0800 
 40 H        0.1800     1.7170     2.0460 H     1 <1>   0.0800 
 41 H       -5.7010    -5.5650     0.7010 H     1 <1>   0.1500 
 42 H       -9.1920    -3.5320    -0.6310 H     1 <1>   0.1500 
 43 H       -6.9480    -7.6030     0.9090 H     1 <1>   0.1500 
 44 H      -10.4640    -5.5720    -0.4280 H     1 <1>   0.1500 
 45 H      -10.8320    -9.3230    -0.9520 H     1 <1>   0.0800 
 46 H      -10.9130    -7.6340    -1.3610 H     1 <1>   0.0800 
 47 H       -9.4690    -8.5420    -1.7150 H     1 <1>   0.0800 
 48 H       -9.5110   -10.1420     0.9300 H     1 <1>   0.0800 
 49 H       -8.0770    -9.4980     0.1850 H     1 <1>   0.0800 
 50 H       -8.4700    -9.0870     1.8420 H     1 <1>   0.0800 
 51 H      -11.4810    -7.0410     1.0320 H     1 <1>   0.0800 
 52 H      -10.4290    -7.5410     2.3270 H     1 <1>   0.0800 
 53 H      -11.4120    -8.7170     1.4910 H     1 <1>   0.0800 
@<TRIPOS>BOND
  1   1   2  2   
  2   2   3  am  
  3   2   4  1   
  4   3   5  1   
  5   3  29  1   
  6   4   6  ar  
  7   4   7  ar  
  8   5   8  1   
  9   5   9  1   
 10   5  30  1   
 11   6  10  ar  
 12   6  31  1   
 13   7  11  ar  
 14   7  32  1   
 15   8  12  1   
 16   8  13  2   
 17   9  33  1   
 18   9  34  1   
 19   9  35  1   
 20  10  14  1   
 21  10  15  ar  
 22  11  15  ar  
 23  11  36  1   
 24  12  16  1   
 25  13  17  1   
 26  14  18  1   
 27  15  37  1   
 28  16  17  2   
 29  17  19  1   
 30  18  38  1   
 31  18  39  1   
 32  18  40  1   
 33  19  20  ar  
 34  19  21  ar  
 35  20  22  ar  
 36  20  41  1   
 37  21  23  ar  
 38  21  42  1   
 39  22  24  ar  
 40  22  43  1   
 41  23  24  ar  
 42  23  44  1   
 43  24  25  1   
 44  25  26  1   
 45  25  27  1   
 46  25  28  1   
 47  26  45  1   
 48  26  46  1   
 49  26  47  1   
 50  27  48  1   
 51  27  49  1   
 52  27  50  1   
 53  28  51  1   
 54  28  52  1   
 55  28  53  1   
@<TRIPOS>SUBSTRUCTURE
  1 ****   8 GROUP 4 **** **** 0

# MOE 2024.06 (io_trps.svl 2023.06)
