@<TRIPOS>MOLECULE
2-(2-Methyl-imidazol-1-yl)-ethylamine
21 21 1 0 0 
SMALL
USER_CHARGES


@<TRIPOS>ATOM
  1 N        0.1610    -0.0040     0.4660 N.2   1 <1>  -0.5650 
  2 C        1.0490    -0.7110    -0.1470 C.2   1 <1>   0.0060 
  3 C        0.8450     1.0500     0.9400 C.2   1 <1>   0.0770 
  4 N        2.2940    -0.1780    -0.0900 N.pl3 1 <1>   0.0480 
  5 C        0.6980    -2.0080    -0.8510 C.3   1 <1>  -0.0600 
  6 C        2.1510     0.9600     0.6130 C.2   1 <1>  -0.3020 
  7 C        3.5650    -0.7340    -0.5730 C.3   1 <1>   0.0960 
  8 C        4.2240    -1.4700     0.5980 C.3   1 <1>   0.3430 
  9 N        5.5580    -2.0380     0.2340 N.4   1 <1>  -0.8530 
 10 H        0.3510     1.8290     1.4990 H     1 <1>   0.1500 
 11 H       -0.3590    -2.1900    -0.7610 H     1 <1>   0.0800 
 12 H        1.2210    -2.8340    -0.4080 H     1 <1>   0.0800 
 13 H        0.9370    -1.9410    -1.8960 H     1 <1>   0.0800 
 14 H        2.9500     1.6430     0.8410 H     1 <1>   0.1500 
 15 H        4.1800     0.0800    -0.9130 H     1 <1>   0.0800 
 16 H        3.3660    -1.4020    -1.3910 H     1 <1>   0.0800 
 17 H        3.5680    -2.2640     0.9220 H     1 <1>   0.0800 
 18 H        4.3390    -0.7780     1.4190 H     1 <1>   0.0800 
 19 H        5.4910    -2.7240    -0.5280 H     1 <1>   0.4500 
 20 H        5.9730    -2.5220     1.0420 H     1 <1>   0.4500 
 21 H        6.2210    -1.3050    -0.0490 H     1 <1>   0.4500 
@<TRIPOS>BOND
  1   1   2  2   
  2   1   3  1   
  3   2   4  1   
  4   2   5  1   
  5   3   6  2   
  6   3  10  1   
  7   4   6  1   
  8   4   7  1   
  9   5  11  1   
 10   5  12  1   
 11   5  13  1   
 12   6  14  1   
 13   7   8  1   
 14   7  15  1   
 15   7  16  1   
 16   8   9  1   
 17   8  17  1   
 18   8  18  1   
 19   9  19  1   
 20   9  20  1   
 21   9  21  1   
@<TRIPOS>SUBSTRUCTURE
  1 ****   4 GROUP 4 **** **** 0

# MOE 2024.06 (io_trps.svl 2023.06)
