@<TRIPOS>MOLECULE
8-(3,4-Dimethyl-phenyl)-3-ethyl-1-methyl-7,8-dihydro-1H,6H-imidazo[2,1-f]purine-
47 50 1 0 0 
SMALL
USER_CHARGES


@<TRIPOS>ATOM
  1 O        0.7750     0.0840     1.2460 O.2   1 <1>  -0.5750 
  2 C        1.7290     0.7480     0.8960 C.2   1 <1>   0.6860 
  3 N        1.5500     2.0580     0.4560 N.am  1 <1>  -0.4260 
  4 N        3.0030     0.1930     0.9430 N.am  1 <1>  -0.4420 
  5 C        2.6300     2.8490     0.0910 C.2   1 <1>   0.6990 
  6 C        0.1690     2.6140     0.3510 C.3   1 <1>   0.1320 
  7 C        4.0720     0.9880     0.5820 C.2   1 <1>   0.4200 
  8 C        3.2070    -1.2130     1.4000 C.3   1 <1>   0.0520 
  9 O        2.4800     4.0020    -0.2800 O.2   1 <1>  -0.5750 
 10 C        3.9340     2.2700     0.1660 C.2   1 <1>   0.2700 
 11 C       -0.3960     2.3370    -1.0420 C.3   1 <1>  -0.2470 
 12 N        5.4020     0.6610     0.5770 N.pl3 1 <1>  -0.7040 
 13 N        5.2320     2.7190    -0.0980 N.pl3 1 <1>  -0.7670 
 14 C        6.0570     1.7370     0.1600 C.cat 1 <1>   1.0690 
 15 C        5.9380     3.9310    -0.5530 C.3   1 <1>   0.3480 
 16 N        7.3360     2.0420    -0.0460 N.pl3 1 <1>  -0.5800 
 17 C        7.4150     3.4620    -0.5090 C.3   1 <1>   0.1600 
 18 C        8.4370     1.1870     0.0420 C.ar  1 <1>   0.3040 
 19 C        8.4550    -0.0080    -0.6640 C.ar  1 <1>  -0.1580 
 20 C        9.5160     1.5080     0.8500 C.ar  1 <1>  -0.1580 
 21 C        9.5210    -0.8850    -0.5570 C.ar  1 <1>  -0.1510 
 22 C       10.5850     0.6400     0.9610 C.ar  1 <1>  -0.1580 
 23 C       10.5940    -0.5580     0.2640 C.ar  1 <1>  -0.1510 
 24 C        9.4990    -2.1850    -1.3500 C.3   1 <1>  -0.1050 
 25 C       11.7910    -1.4870     0.4150 C.3   1 <1>  -0.1050 
 26 H        0.1820     3.6750     0.5340 H     1 <1>   0.0720 
 27 H       -0.4680     2.1670     1.0970 H     1 <1>   0.0720 
 28 H        2.3140    -1.7950     1.2410 H     1 <1>   0.0720 
 29 H        3.4390    -1.2230     2.4510 H     1 <1>   0.0720 
 30 H        4.0070    -1.6760     0.8510 H     1 <1>   0.0720 
 31 H        0.2070     2.8090    -1.7970 H     1 <1>   0.0720 
 32 H       -1.3930     2.7360    -1.1090 H     1 <1>   0.0720 
 33 H       -0.4460     1.2780    -1.2240 H     1 <1>   0.0720 
 34 H        5.8430    -0.2120     0.8600 H     1 <1>   0.4440 
 35 H        5.7630     4.7550     0.1190 H     1 <1>   0.0720 
 36 H        5.6370     4.2000    -1.5520 H     1 <1>   0.0720 
 37 H        7.9850     4.0570     0.1840 H     1 <1>   0.0720 
 38 H        7.8650     3.5160    -1.4860 H     1 <1>   0.0720 
 39 H        7.6360    -0.2540    -1.3130 H     1 <1>   0.1420 
 40 H        9.5260     2.4300     1.4020 H     1 <1>   0.1420 
 41 H       11.4150     0.9010     1.5950 H     1 <1>   0.1420 
 42 H        8.5920    -2.2830    -1.9180 H     1 <1>   0.0720 
 43 H        9.5720    -3.0270    -0.6840 H     1 <1>   0.0720 
 44 H       10.3280    -2.2120    -2.0350 H     1 <1>   0.0720 
 45 H       11.4760    -2.4360     0.8120 H     1 <1>   0.0720 
 46 H       12.5240    -1.0710     1.0830 H     1 <1>   0.0720 
 47 H       12.2590    -1.6450    -0.5400 H     1 <1>   0.0720 
@<TRIPOS>BOND
  1   1   2  2   
  2   2   3  am  
  3   2   4  am  
  4   3   5  am  
  5   3   6  1   
  6   4   7  1   
  7   4   8  1   
  8   5   9  2   
  9   5  10  1   
 10   6  11  1   
 11   6  26  1   
 12   6  27  1   
 13   7  10  2   
 14   7  12  1   
 15   8  28  1   
 16   8  29  1   
 17   8  30  1   
 18  10  13  1   
 19  11  31  1   
 20  11  32  1   
 21  11  33  1   
 22  12  14  ar  
 23  12  34  1   
 24  13  14  ar  
 25  13  15  1   
 26  14  16  ar  
 27  15  17  1   
 28  15  35  1   
 29  15  36  1   
 30  16  17  1   
 31  16  18  1   
 32  17  37  1   
 33  17  38  1   
 34  18  19  ar  
 35  18  20  ar  
 36  19  21  ar  
 37  19  39  1   
 38  20  22  ar  
 39  20  40  1   
 40  21  23  ar  
 41  21  24  1   
 42  22  23  ar  
 43  22  41  1   
 44  23  25  1   
 45  24  42  1   
 46  24  43  1   
 47  24  44  1   
 48  25  45  1   
 49  25  46  1   
 50  25  47  1   
@<TRIPOS>SUBSTRUCTURE
  1 ****  12 GROUP 4 **** **** 0

# MOE 2024.06 (io_trps.svl 2023.06)
