@<TRIPOS>MOLECULE
2-Ethyl-8,9,10,11-tetrahydro-7H-6-thia-1,3,3a,5-tetraaza-cyclohepta[b]-as-indace
36 39 1 0 0 
SMALL
USER_CHARGES


@<TRIPOS>ATOM
  1 S       -0.0540    -1.0580     0.3360 S.3   1 <1>  -0.0800 
  2 C        1.3520    -0.0240     0.3940 C.2   1 <1>   0.1660 
  3 C       -1.0700     0.2810    -0.1800 C.2   1 <1>  -0.1400 
  4 N        2.5640    -0.4940     0.7560 N.2   1 <1>  -0.5760 
  5 C        1.0380     1.2600     0.0370 C.2   1 <1>  -0.0370 
  6 C       -0.3610     1.4190    -0.2990 C.2   1 <1>  -0.1810 
  7 C       -2.5390    -0.0210    -0.4030 C.3   1 <1>   0.0200 
  8 C        3.5200     0.3710     0.7660 C.2   1 <1>   0.8090 
  9 C        2.1350     2.1430     0.0790 C.cat 1 <1>   0.8370 
 10 C       -1.0040     2.7230    -0.7530 C.3   1 <1>   0.0210 
 11 C       -3.4340     0.9040     0.4310 C.3   1 <1>  -0.1600 
 12 N        3.3440     1.6970     0.4340 N.pl3 1 <1>  -0.3620 
 13 N        2.2790     3.4420    -0.1690 N.pl3 1 <1>  -0.7000 
 14 C       -2.1550     3.1480     0.1700 C.3   1 <1>  -0.1600 
 15 C       -3.4610     2.3640    -0.0510 C.3   1 <1>  -0.1600 
 16 N        4.2570     2.7160     0.4090 N.2   1 <1>  -0.2600 
 17 C        3.5830     3.7460     0.0440 C.2   1 <1>   0.4850 
 18 C        4.1190     5.1620    -0.1460 C.3   1 <1>   0.0080 
 19 C        5.6220     5.3070     0.1440 C.3   1 <1>  -0.2400 
 20 H       -2.7370    -1.0400    -0.1170 H     1 <1>   0.0800 
 21 H       -2.7750     0.0740    -1.4480 H     1 <1>   0.0800 
 22 H        4.5150     0.0690     1.0440 H     1 <1>   0.0600 
 23 H       -1.3740     2.6050    -1.7570 H     1 <1>   0.0800 
 24 H       -0.2840     3.5140    -0.7740 H     1 <1>   0.0800 
 25 H       -3.1260     0.8650     1.4620 H     1 <1>   0.0800 
 26 H       -4.4380     0.5200     0.3850 H     1 <1>   0.0800 
 27 H        1.5440     4.0840    -0.4580 H     1 <1>   0.4500 
 28 H       -2.3670     4.1860    -0.0200 H     1 <1>   0.0800 
 29 H       -1.8510     3.0670     1.2000 H     1 <1>   0.0800 
 30 H       -4.2410     2.8690     0.4950 H     1 <1>   0.0800 
 31 H       -3.7380     2.3980    -1.0910 H     1 <1>   0.0800 
 32 H        3.5770     5.8260     0.5040 H     1 <1>   0.0800 
 33 H        3.9320     5.4680    -1.1600 H     1 <1>   0.0800 
 34 H        5.8400     5.0380     1.1630 H     1 <1>   0.0800 
 35 H        5.9310     6.3270    -0.0090 H     1 <1>   0.0800 
 36 H        6.1980     4.6780    -0.5120 H     1 <1>   0.0800 
@<TRIPOS>BOND
  1   1   2  1   
  2   1   3  1   
  3   2   4  1   
  4   2   5  2   
  5   3   6  2   
  6   3   7  1   
  7   4   8  2   
  8   5   6  1   
  9   5   9  1   
 10   6  10  1   
 11   7  11  1   
 12   7  20  1   
 13   7  21  1   
 14   8  12  1   
 15   8  22  1   
 16   9  12  ar  
 17   9  13  ar  
 18  10  14  1   
 19  10  23  1   
 20  10  24  1   
 21  11  15  1   
 22  11  25  1   
 23  11  26  1   
 24  12  16  1   
 25  13  17  1   
 26  13  27  1   
 27  14  15  1   
 28  14  28  1   
 29  14  29  1   
 30  15  30  1   
 31  15  31  1   
 32  16  17  2   
 33  17  18  1   
 34  18  19  1   
 35  18  32  1   
 36  18  33  1   
 37  19  34  1   
 38  19  35  1   
 39  19  36  1   
@<TRIPOS>SUBSTRUCTURE
  1 ****   5 GROUP 4 **** **** 0

# MOE 2024.06 (io_trps.svl 2023.06)
