@<TRIPOS>MOLECULE
5-Ethyl-4-methyl-thiophene-2-carboxylic acid
20 20 1 0 0 
SMALL
USER_CHARGES


@<TRIPOS>ATOM
  1 S       -0.0550    -0.2400     0.0070 S.3   1 <1>  -0.0800 
  2 C        1.2420     0.9520    -0.0030 C.2   1 <1>  -0.1920 
  3 C       -1.3150     0.9860     0.0060 C.2   1 <1>  -0.1400 
  4 C        2.6260     0.5310    -0.0050 C.2   1 <1>   1.0320 
  5 C        0.6770     2.1830    -0.0060 C.2   1 <1>  -0.1500 
  6 C       -0.7510     2.2170    -0.0020 C.2   1 <1>  -0.1810 
  7 C       -2.7110     0.3730     0.0130 C.3   1 <1>   0.0200 
  8 O        3.5300     1.3890    -0.0120 O.co2 1 <1>  -0.9000 
  9 O        2.9510    -0.6710    -0.0010 O.co2 1 <1>  -0.9000 
 10 C       -1.3910     3.5950    -0.0060 C.3   1 <1>  -0.0590 
 11 C       -3.8810     1.3580     0.0120 C.3   1 <1>  -0.2400 
 12 H        1.2660     3.0840    -0.0120 H     1 <1>   0.1500 
 13 H       -2.7920    -0.2550     0.8830 H     1 <1>   0.0800 
 14 H       -2.7980    -0.2630    -0.8510 H     1 <1>   0.0800 
 15 H       -2.4580     3.5550    -0.0020 H     1 <1>   0.0800 
 16 H       -1.0750     4.1310    -0.8830 H     1 <1>   0.0800 
 17 H       -1.0690     4.1390     0.8640 H     1 <1>   0.0800 
 18 H       -3.8430     1.9780     0.8900 H     1 <1>   0.0800 
 19 H       -4.8100     0.8170     0.0180 H     1 <1>   0.0800 
 20 H       -3.8490     1.9700    -0.8710 H     1 <1>   0.0800 
@<TRIPOS>BOND
  1   1   2  1   
  2   1   3  1   
  3   2   4  1   
  4   2   5  2   
  5   3   6  2   
  6   3   7  1   
  7   4   8  ar  
  8   4   9  ar  
  9   5   6  1   
 10   5  12  1   
 11   6  10  1   
 12   7  11  1   
 13   7  13  1   
 14   7  14  1   
 15  10  15  1   
 16  10  16  1   
 17  10  17  1   
 18  11  18  1   
 19  11  19  1   
 20  11  20  1   
@<TRIPOS>SUBSTRUCTURE
  1 ****   2 GROUP 4 **** **** 0

# MOE 2024.06 (io_trps.svl 2023.06)
