@<TRIPOS>MOLECULE
3-Methyl-N-[2-(4-methyl-piperazin-1-yl)-phenyl]-benzamide
47 49 1 0 0 
SMALL
USER_CHARGES


@<TRIPOS>ATOM
  1 O        0.0610     2.0590     1.4100 O.2   1 <1>  -0.5700 
  2 C       -0.1060     1.8010     0.2330 C.2   1 <1>   0.5440 
  3 N        0.9790     1.6690    -0.5960 N.am  1 <1>  -0.5470 
  4 C       -1.4430     1.6210    -0.3020 C.ar  1 <1>   0.0860 
  5 C        2.3380     1.9050    -0.3160 C.ar  1 <1>   0.1170 
  6 C       -2.4640     1.0940     0.4890 C.ar  1 <1>  -0.1500 
  7 C       -1.7640     1.9660    -1.6170 C.ar  1 <1>  -0.1500 
  8 C        2.8760     3.2040    -0.2290 C.ar  1 <1>   0.1000 
  9 C        3.1740     0.8100    -0.1620 C.ar  1 <1>  -0.1500 
 10 C       -3.7440     0.9020    -0.0020 C.ar  1 <1>  -0.1440 
 11 C       -3.0380     1.7780    -2.1180 C.ar  1 <1>  -0.1500 
 12 N        2.0700     4.3480    -0.3490 N.pl3 1 <1>  -0.8380 
 13 C        4.2390     3.3480     0.0000 C.ar  1 <1>  -0.1500 
 14 C        4.5290     0.9730     0.0660 C.ar  1 <1>  -0.1500 
 15 C       -4.0280     1.2450    -1.3120 C.ar  1 <1>  -0.1500 
 16 C       -4.8360     0.3240     0.8810 C.3   1 <1>  -0.0970 
 17 C        1.3430     4.7690     0.8900 C.3   1 <1>   0.2090 
 18 C        2.4010     5.3990    -1.3570 C.3   1 <1>   0.2090 
 19 C        5.0620     2.2450     0.1450 C.ar  1 <1>  -0.1500 
 20 C        1.8750     6.0960     1.4640 C.3   1 <1>   0.3430 
 21 C        2.8960     6.7070    -0.7010 C.3   1 <1>   0.3430 
 22 N        1.9990     7.1760     0.4170 N.4   1 <1>  -0.9590 
 23 C        2.4820     8.4570     1.0120 C.3   1 <1>   0.2630 
 24 H        0.7870     1.3070    -1.5260 H     1 <1>   0.3700 
 25 H       -2.2370     0.8330     1.5090 H     1 <1>   0.1500 
 26 H       -1.0130     2.3940    -2.2560 H     1 <1>   0.1500 
 27 H        2.7610    -0.1810    -0.2200 H     1 <1>   0.1500 
 28 H       -3.2660     2.0480    -3.1350 H     1 <1>   0.1500 
 29 H        4.6680     4.3270     0.0750 H     1 <1>   0.1500 
 30 H        5.1630     0.1110     0.1840 H     1 <1>   0.1500 
 31 H       -5.0190     1.1010    -1.7060 H     1 <1>   0.1500 
 32 H       -4.4260    -0.0570     1.7990 H     1 <1>   0.0800 
 33 H       -5.3350    -0.4800     0.3720 H     1 <1>   0.0800 
 34 H       -5.5560     1.0870     1.1170 H     1 <1>   0.0800 
 35 H        1.4580     4.0130     1.6470 H     1 <1>   0.0800 
 36 H        0.2930     4.8520     0.6730 H     1 <1>   0.0800 
 37 H        1.5230     5.6020    -1.9440 H     1 <1>   0.0800 
 38 H        3.1560     5.0270    -2.0280 H     1 <1>   0.0800 
 39 H        6.1160     2.3730     0.3240 H     1 <1>   0.1500 
 40 H        2.8410     5.9050     1.9000 H     1 <1>   0.0800 
 41 H        1.2160     6.4190     2.2530 H     1 <1>   0.0800 
 42 H        2.9670     7.4700    -1.4590 H     1 <1>   0.0800 
 43 H        3.8860     6.5350    -0.3150 H     1 <1>   0.0800 
 44 H        1.0580     7.3140     0.0190 H     1 <1>   0.4500 
 45 H        3.4630     8.3260     1.4390 H     1 <1>   0.0800 
 46 H        1.8100     8.7850     1.7890 H     1 <1>   0.0800 
 47 H        2.5330     9.2250     0.2580 H     1 <1>   0.0800 
@<TRIPOS>BOND
  1   1   2  2   
  2   2   3  am  
  3   2   4  1   
  4   3   5  1   
  5   3  24  1   
  6   4   6  ar  
  7   4   7  ar  
  8   5   8  ar  
  9   5   9  ar  
 10   6  10  ar  
 11   6  25  1   
 12   7  11  ar  
 13   7  26  1   
 14   8  12  1   
 15   8  13  ar  
 16   9  14  ar  
 17   9  27  1   
 18  10  15  ar  
 19  10  16  1   
 20  11  15  ar  
 21  11  28  1   
 22  12  17  1   
 23  12  18  1   
 24  13  19  ar  
 25  13  29  1   
 26  14  19  ar  
 27  14  30  1   
 28  15  31  1   
 29  16  32  1   
 30  16  33  1   
 31  16  34  1   
 32  17  20  1   
 33  17  35  1   
 34  17  36  1   
 35  18  21  1   
 36  18  37  1   
 37  18  38  1   
 38  19  39  1   
 39  20  22  1   
 40  20  40  1   
 41  20  41  1   
 42  21  22  1   
 43  21  42  1   
 44  21  43  1   
 45  22  23  1   
 46  22  44  1   
 47  23  45  1   
 48  23  46  1   
 49  23  47  1   
@<TRIPOS>SUBSTRUCTURE
  1 ****   3 GROUP 4 **** **** 0

# MOE 2024.06 (io_trps.svl 2023.06)
