@<TRIPOS>MOLECULE
1,7,8-Trimethyl-3-(2-methyl-allyl)-1H,8H-imidazo[2,1-f]purine-2,4-dione
39 41 1 0 0 
SMALL
USER_CHARGES


@<TRIPOS>ATOM
  1 O        0.6440    -0.1640    -1.9160 O.2   1 <1>  -0.5760 
  2 C        1.5280     0.5640    -1.5120 C.2   1 <1>   0.6850 
  3 N        1.2900     1.9170    -1.3180 N.am  1 <1>  -0.4270 
  4 N        2.7890     0.0350    -1.2530 N.am  1 <1>  -0.4430 
  5 C        2.3140     2.7950    -0.9990 C.2   1 <1>   0.6980 
  6 C       -0.1060     2.4220    -1.3020 C.3   1 <1>   0.2700 
  7 C        3.7930     0.9040    -0.8720 C.2   1 <1>   0.4190 
  8 C        3.0470    -1.4270    -1.4130 C.3   1 <1>   0.0500 
  9 O        2.1350     4.0020    -0.9670 O.2   1 <1>  -0.5760 
 10 C        3.5990     2.2390    -0.7410 C.2   1 <1>   0.2680 
 11 C       -0.6010     2.4730     0.1390 C.2   1 <1>  -0.2850 
 12 N        5.0960     0.6050    -0.5850 N.pl3 1 <1>  -0.7050 
 13 N        4.8360     2.7780    -0.3570 N.pl3 1 <1>  -0.6350 
 14 C       -0.7050     3.6140     0.8280 C.2   1 <1>  -0.3080 
 15 C       -0.9850     1.1260     0.7340 C.3   1 <1>  -0.1120 
 16 C        5.6880     1.7660    -0.2780 C.cat 1 <1>   1.0680 
 17 C        5.5340     3.9230    -0.0260 C.2   1 <1>   0.2200 
 18 N        6.9110     2.1780     0.0860 N.pl3 1 <1>  -0.5730 
 19 C        6.8070     3.5530     0.2450 C.2   1 <1>   0.1550 
 20 C        8.1380     1.3620     0.2860 C.3   1 <1>   0.0770 
 21 C        7.9860     4.4130     0.6590 C.3   1 <1>  -0.1120 
 22 H       -0.7520     1.7980    -1.8960 H     1 <1>   0.0700 
 23 H       -0.1340     3.4090    -1.7320 H     1 <1>   0.0700 
 24 H        2.1350    -1.9860    -1.2840 H     1 <1>   0.0700 
 25 H        3.7520    -1.7690    -0.6770 H     1 <1>   0.0700 
 26 H        3.4310    -1.6210    -2.3990 H     1 <1>   0.0700 
 27 H        5.5500    -0.3040    -0.6010 H     1 <1>   0.4430 
 28 H       -1.0590     3.6790     1.8420 H     1 <1>   0.1400 
 29 H       -0.4440     4.5830     0.4360 H     1 <1>   0.1400 
 30 H       -0.1290     0.4810     0.8030 H     1 <1>   0.0700 
 31 H       -1.7290     0.6480     0.1220 H     1 <1>   0.0700 
 32 H       -1.3910     1.2520     1.7220 H     1 <1>   0.0700 
 33 H        5.0730     4.8990    -0.0110 H     1 <1>   0.1400 
 34 H        7.9370     0.3220     0.1000 H     1 <1>   0.0700 
 35 H        8.4880     1.4730     1.2990 H     1 <1>   0.0700 
 36 H        8.9100     1.6940    -0.3880 H     1 <1>   0.0700 
 37 H        8.3550     4.1020     1.6200 H     1 <1>   0.0700 
 38 H        7.6930     5.4460     0.7240 H     1 <1>   0.0700 
 39 H        8.7800     4.3290    -0.0630 H     1 <1>   0.0700 
@<TRIPOS>BOND
  1   1   2  2   
  2   2   3  am  
  3   2   4  am  
  4   3   5  am  
  5   3   6  1   
  6   4   7  1   
  7   4   8  1   
  8   5   9  2   
  9   5  10  1   
 10   6  11  1   
 11   6  22  1   
 12   6  23  1   
 13   7  10  2   
 14   7  12  1   
 15   8  24  1   
 16   8  25  1   
 17   8  26  1   
 18  10  13  1   
 19  11  14  2   
 20  11  15  1   
 21  12  16  ar  
 22  12  27  1   
 23  13  16  ar  
 24  13  17  1   
 25  14  28  1   
 26  14  29  1   
 27  15  30  1   
 28  15  31  1   
 29  15  32  1   
 30  16  18  ar  
 31  17  19  2   
 32  17  33  1   
 33  18  19  1   
 34  18  20  1   
 35  19  21  1   
 36  20  34  1   
 37  20  35  1   
 38  20  36  1   
 39  21  37  1   
 40  21  38  1   
 41  21  39  1   
@<TRIPOS>SUBSTRUCTURE
  1 ****  10 GROUP 4 **** **** 0

# MOE 2024.06 (io_trps.svl 2023.06)
