@<TRIPOS>MOLECULE
6-Benzo[1,3]dioxol-5-yl-3-isopropyl-[1,2,4]triazolo[3,4-b][1,3,4]thiadiazole
32 35 1 0 0 
SMALL
USER_CHARGES


@<TRIPOS>ATOM
  1 S       -0.0250    -0.1120     0.6780 S.3   1 <1>  -0.1970 
  2 C        0.8140     1.4120     0.5440 C.2   1 <1>   0.2420 
  3 C       -1.5480     0.7090     0.2190 C.2   1 <1>   0.5050 
  4 N        2.0200     1.8260     0.6990 N.2   1 <1>  -0.3380 
  5 N       -0.0570     2.3370     0.1920 N.pl3 1 <1>   0.5050 
  6 N       -1.3890     1.9680     0.0030 N.2   1 <1>  -0.6520 
  7 C       -2.7670    -0.0720     0.1350 C.ar  1 <1>   0.0860 
  8 N        1.9560     3.1450     0.4290 N.2   1 <1>  -0.3380 
  9 C        0.7220     3.4300     0.1300 C.2   1 <1>   0.0060 
 10 C       -3.9660     0.5640    -0.2150 C.ar  1 <1>  -0.1500 
 11 C       -2.8150    -1.4570     0.3880 C.ar  1 <1>  -0.1500 
 12 C        0.1630     4.8000    -0.2400 C.3   1 <1>   0.1000 
 13 C       -5.1290    -0.1710    -0.2970 C.ar  1 <1>   0.0830 
 14 C       -3.9940    -2.1840     0.3010 C.ar  1 <1>  -0.1500 
 15 C        1.2330     5.6980    -0.8750 C.3   1 <1>  -0.2400 
 16 C       -0.4270     5.4790     1.0010 C.3   1 <1>  -0.2400 
 17 O       -6.3570     0.2520    -0.6120 O.3   1 <1>  -0.3620 
 18 C       -5.1460    -1.5100    -0.0470 C.ar  1 <1>   0.0830 
 19 C       -7.2110    -0.8910    -0.5590 C.3   1 <1>   0.4000 
 20 O       -6.3820    -1.9910    -0.1910 O.3   1 <1>  -0.3630 
 21 H       -3.9950     1.6200    -0.4200 H     1 <1>   0.1500 
 22 H       -1.9230    -1.9920     0.6590 H     1 <1>   0.1500 
 23 H       -0.6250     4.6620    -0.9620 H     1 <1>   0.0800 
 24 H       -4.0260    -3.2420     0.4950 H     1 <1>   0.1500 
 25 H        2.0290     5.8850    -0.1750 H     1 <1>   0.0800 
 26 H        0.8070     6.6380    -1.1750 H     1 <1>   0.0800 
 27 H        1.6500     5.2170    -1.7420 H     1 <1>   0.0800 
 28 H        0.3370     5.6170     1.7470 H     1 <1>   0.0800 
 29 H       -1.2100     4.8720     1.4190 H     1 <1>   0.0800 
 30 H       -0.8380     6.4380     0.7440 H     1 <1>   0.0800 
 31 H       -7.6390    -1.0680    -1.5290 H     1 <1>   0.0800 
 32 H       -7.9680    -0.7420     0.1910 H     1 <1>   0.0800 
@<TRIPOS>BOND
  1   1   2  1   
  2   1   3  1   
  3   2   4  2   
  4   2   5  1   
  5   3   6  2   
  6   3   7  1   
  7   4   8  1   
  8   5   6  1   
  9   5   9  1   
 10   7  10  ar  
 11   7  11  ar  
 12   8   9  2   
 13   9  12  1   
 14  10  13  ar  
 15  10  21  1   
 16  11  14  ar  
 17  11  22  1   
 18  12  15  1   
 19  12  16  1   
 20  12  23  1   
 21  13  17  1   
 22  13  18  ar  
 23  14  18  ar  
 24  14  24  1   
 25  15  25  1   
 26  15  26  1   
 27  15  27  1   
 28  16  28  1   
 29  16  29  1   
 30  16  30  1   
 31  17  19  1   
 32  18  20  1   
 33  19  20  1   
 34  19  31  1   
 35  19  32  1   
@<TRIPOS>SUBSTRUCTURE
  1 ****   3 GROUP 4 **** **** 0

# MOE 2024.06 (io_trps.svl 2023.06)
