@<TRIPOS>MOLECULE
7-Benzyl-8-cyclohexylamino-3-methyl-3,7-dihydro-purine-2,6-dione
50 53 1 0 0 
SMALL
USER_CHARGES


@<TRIPOS>ATOM
  1 O        0.6460     0.2540     0.5950 O.2   1 <1>  -0.5750 
  2 C        1.7130     0.8000     0.4440 C.2   1 <1>   0.6860 
  3 N        2.9100     0.0970     0.4320 N.am  1 <1>  -0.4420 
  4 N        1.7320     2.1550     0.2800 N.am  1 <1>  -0.4950 
  5 C        4.0790     0.8200     0.2480 C.2   1 <1>   0.4200 
  6 C        2.9400    -1.3850     0.6070 C.3   1 <1>   0.0520 
  7 C        2.8740     2.8810     0.1000 C.2   1 <1>   0.6990 
  8 N        5.3540     0.3530     0.1990 N.pl3 1 <1>  -0.7040 
  9 C        4.1120     2.1620     0.0840 C.2   1 <1>   0.2700 
 10 O        2.8030     4.0850    -0.0390 O.2   1 <1>  -0.5750 
 11 C        6.1720     1.3850     0.0080 C.cat 1 <1>   1.0690 
 12 N        5.4630     2.5190    -0.0700 N.pl3 1 <1>  -0.7670 
 13 N        7.4890     1.2620    -0.0860 N.pl3 1 <1>  -0.7180 
 14 C        5.8650     3.9450    -0.2740 C.3   1 <1>   0.4920 
 15 C        8.3390     0.0700    -0.0130 C.3   1 <1>   0.2410 
 16 C        7.3710     4.0600    -0.4120 C.ar  1 <1>  -0.1510 
 17 C        9.3030     0.2330     1.1650 C.3   1 <1>  -0.1670 
 18 C        9.0970    -0.0680    -1.3360 C.3   1 <1>  -0.1670 
 19 C        7.9690     3.9370    -1.6580 C.ar  1 <1>  -0.1570 
 20 C        8.1640     4.2220     0.7150 C.ar  1 <1>  -0.1570 
 21 C       10.2940    -0.9380     1.2290 C.3   1 <1>  -0.1670 
 22 C       10.0860    -1.2400    -1.2820 C.3   1 <1>  -0.1670 
 23 C        9.3470     3.9500    -1.7720 C.ar  1 <1>  -0.1570 
 24 C        9.5420     4.2340     0.5990 C.ar  1 <1>  -0.1570 
 25 C       11.0500    -1.0940    -0.0970 C.3   1 <1>  -0.1670 
 26 C       10.1330     4.0930    -0.6430 C.ar  1 <1>  -0.1570 
 27 H        0.8360     2.6400     0.2950 H     1 <1>   0.3640 
 28 H        1.9470    -1.7740     0.7620 H     1 <1>   0.0720 
 29 H        3.5390    -1.6410     1.4630 H     1 <1>   0.0720 
 30 H        3.3510    -1.8490    -0.2720 H     1 <1>   0.0720 
 31 H        5.6620    -0.6100     0.2890 H     1 <1>   0.4450 
 32 H        8.0260     2.1280    -0.2340 H     1 <1>   0.4450 
 33 H        5.5310     4.5370     0.5620 H     1 <1>   0.0720 
 34 H        5.3890     4.3300    -1.1610 H     1 <1>   0.0720 
 35 H        7.7430    -0.8140     0.1420 H     1 <1>   0.0720 
 36 H        8.7530     0.2770     2.0880 H     1 <1>   0.0720 
 37 H        9.8620     1.1470     1.0550 H     1 <1>   0.0720 
 38 H        8.4040    -0.2320    -2.1430 H     1 <1>   0.0720 
 39 H        9.6480     0.8350    -1.5370 H     1 <1>   0.0720 
 40 H        7.3740     3.8240    -2.5500 H     1 <1>   0.1430 
 41 H        7.7230     4.3330     1.6930 H     1 <1>   0.1430 
 42 H       10.9990    -0.7710     2.0250 H     1 <1>   0.0720 
 43 H        9.7650    -1.8500     1.4460 H     1 <1>   0.0720 
 44 H       10.6510    -1.2790    -2.1980 H     1 <1>   0.0720 
 45 H        9.5470    -2.1670    -1.1900 H     1 <1>   0.0720 
 46 H        9.8120     3.8530    -2.7390 H     1 <1>   0.1430 
 47 H       10.1590     4.3580     1.4740 H     1 <1>   0.1430 
 48 H       11.6900    -1.9580    -0.0460 H     1 <1>   0.0720 
 49 H       11.6770    -0.2330    -0.2520 H     1 <1>   0.0720 
 50 H       11.2070     4.1050    -0.7330 H     1 <1>   0.1430 
@<TRIPOS>BOND
  1   1   2  2   
  2   2   3  am  
  3   2   4  am  
  4   3   5  1   
  5   3   6  1   
  6   4   7  am  
  7   4  27  1   
  8   5   8  1   
  9   5   9  2   
 10   6  28  1   
 11   6  29  1   
 12   6  30  1   
 13   7   9  1   
 14   7  10  2   
 15   8  11  ar  
 16   8  31  1   
 17   9  12  1   
 18  11  12  ar  
 19  11  13  ar  
 20  12  14  1   
 21  13  15  1   
 22  13  32  1   
 23  14  16  1   
 24  14  33  1   
 25  14  34  1   
 26  15  17  1   
 27  15  18  1   
 28  15  35  1   
 29  16  19  ar  
 30  16  20  ar  
 31  17  21  1   
 32  17  36  1   
 33  17  37  1   
 34  18  22  1   
 35  18  38  1   
 36  18  39  1   
 37  19  23  ar  
 38  19  40  1   
 39  20  24  ar  
 40  20  41  1   
 41  21  25  1   
 42  21  42  1   
 43  21  43  1   
 44  22  25  1   
 45  22  44  1   
 46  22  45  1   
 47  23  26  ar  
 48  23  46  1   
 49  24  26  ar  
 50  24  47  1   
 51  25  48  1   
 52  25  49  1   
 53  26  50  1   
@<TRIPOS>SUBSTRUCTURE
  1 ****  11 GROUP 4 **** **** 0

# MOE 2024.06 (io_trps.svl 2023.06)
