@<TRIPOS>MOLECULE
N-[2-(4-Isobutyryl-piperazin-1-yl)-phenyl]-nicotinamide
50 52 1 0 0 
SMALL
USER_CHARGES


@<TRIPOS>ATOM
  1 O        0.0740     0.2360    -0.5860 O.2   1 <1>  -0.5700 
  2 C       -0.0630    -0.9710    -0.5860 C.2   1 <1>   0.5440 
  3 N        0.9760    -1.7880    -0.2200 N.am  1 <1>  -0.5470 
  4 C       -1.3210    -1.5560    -0.9980 C.ar  1 <1>   0.0860 
  5 C        2.2560    -1.5740     0.3150 C.ar  1 <1>   0.1170 
  6 C       -1.7690    -2.7670    -0.4690 C.ar  1 <1>   0.1600 
  7 C       -2.1430    -0.9420    -1.9340 C.ar  1 <1>  -0.1500 
  8 C        3.0750    -2.7070     0.4260 C.ar  1 <1>   0.1000 
  9 C        2.7320    -0.3400     0.7370 C.ar  1 <1>  -0.1500 
 10 N       -2.8900    -3.3920    -0.7930 N.ar  1 <1>  -0.6200 
 11 C       -3.3180    -1.5700    -2.2830 C.ar  1 <1>  -0.1500 
 12 N        2.5920    -3.9630     0.0070 N.pl3 1 <1>  -0.8380 
 13 C        4.3540    -2.5680     0.9480 C.ar  1 <1>  -0.1500 
 14 C        4.0090    -0.2180     1.2570 C.ar  1 <1>  -0.1500 
 15 C       -3.6410    -2.7790    -1.6940 C.ar  1 <1>   0.1600 
 16 C        2.3410    -5.0020     1.0560 C.3   1 <1>   0.2090 
 17 C        3.1120    -4.4940    -1.2960 C.3   1 <1>   0.2090 
 18 C        4.8210    -1.3330     1.3620 C.ar  1 <1>  -0.1500 
 19 C        3.4870    -6.0240     1.1900 C.3   1 <1>   0.1400 
 20 C        4.2630    -5.4960    -1.1100 C.3   1 <1>   0.1400 
 21 N        3.8880    -6.5750    -0.1430 N.am  1 <1>  -0.6600 
 22 C        3.8000    -7.8870    -0.5470 C.2   1 <1>   0.5690 
 23 O        3.9860    -8.1910    -1.7030 O.2   1 <1>  -0.5700 
 24 C        3.4480    -9.0080     0.4480 C.3   1 <1>  -0.0190 
 25 C        4.0570   -10.3680     0.0580 C.3   1 <1>  -0.2400 
 26 C        1.9240    -9.1580     0.5970 C.3   1 <1>  -0.2400 
 27 H        0.8810    -2.7850    -0.4300 H     1 <1>   0.3700 
 28 H       -1.1610    -3.2500     0.2770 H     1 <1>   0.1500 
 29 H       -1.8590     0.0020    -2.3700 H     1 <1>   0.1500 
 30 H        2.1120     0.5340     0.6630 H     1 <1>   0.1500 
 31 H       -3.9820    -1.1280    -3.0050 H     1 <1>   0.1500 
 32 H        4.9910    -3.4260     1.0290 H     1 <1>   0.1500 
 33 H        4.3660     0.7450     1.5790 H     1 <1>   0.1500 
 34 H       -4.5610    -3.2650    -1.9740 H     1 <1>   0.1500 
 35 H        1.4360    -5.5280     0.8080 H     1 <1>   0.0800 
 36 H        2.1860    -4.5190     2.0060 H     1 <1>   0.0800 
 37 H        3.4510    -3.6760    -1.9070 H     1 <1>   0.0800 
 38 H        2.3090    -4.9830    -1.8200 H     1 <1>   0.0800 
 39 H        5.8150    -1.2380     1.7650 H     1 <1>   0.1500 
 40 H        3.1700    -6.8020     1.8570 H     1 <1>   0.0800 
 41 H        4.3370    -5.5430     1.6380 H     1 <1>   0.0800 
 42 H        5.1300    -4.9770    -0.7430 H     1 <1>   0.0800 
 43 H        4.5210    -5.9120    -2.0680 H     1 <1>   0.0800 
 44 H        3.8680    -8.7550     1.4030 H     1 <1>   0.0800 
 45 H        3.6540   -10.7050    -0.8820 H     1 <1>   0.0800 
 46 H        3.8470   -11.1080     0.8090 H     1 <1>   0.0800 
 47 H        5.1240   -10.2770    -0.0460 H     1 <1>   0.0800 
 48 H        1.4900    -9.4480    -0.3450 H     1 <1>   0.0800 
 49 H        1.4780    -8.2290     0.9010 H     1 <1>   0.0800 
 50 H        1.6880    -9.9080     1.3310 H     1 <1>   0.0800 
@<TRIPOS>BOND
  1   1   2  2   
  2   2   3  am  
  3   2   4  1   
  4   3   5  1   
  5   3  27  1   
  6   4   6  ar  
  7   4   7  ar  
  8   5   8  ar  
  9   5   9  ar  
 10   6  10  ar  
 11   6  28  1   
 12   7  11  ar  
 13   7  29  1   
 14   8  12  1   
 15   8  13  ar  
 16   9  14  ar  
 17   9  30  1   
 18  10  15  ar  
 19  11  15  ar  
 20  11  31  1   
 21  12  16  1   
 22  12  17  1   
 23  13  18  ar  
 24  13  32  1   
 25  14  18  ar  
 26  14  33  1   
 27  15  34  1   
 28  16  19  1   
 29  16  35  1   
 30  16  36  1   
 31  17  20  1   
 32  17  37  1   
 33  17  38  1   
 34  18  39  1   
 35  19  21  1   
 36  19  40  1   
 37  19  41  1   
 38  20  21  1   
 39  20  42  1   
 40  20  43  1   
 41  21  22  am  
 42  22  23  2   
 43  22  24  1   
 44  24  25  1   
 45  24  26  1   
 46  24  44  1   
 47  25  45  1   
 48  25  46  1   
 49  25  47  1   
 50  26  48  1   
 51  26  49  1   
 52  26  50  1   
@<TRIPOS>SUBSTRUCTURE
  1 ****  12 GROUP 4 **** **** 0

# MOE 2024.06 (io_trps.svl 2023.06)
