@<TRIPOS>MOLECULE
2-[4-(Methanesulfonyl-methyl-amino)-benzoylamino]-4,5,6,7-tetrahydro-benzo[b]thi
50 52 1 0 0 
SMALL
USER_CHARGES


@<TRIPOS>ATOM
  1 S        0.4020     0.5230     0.1170 S.o2  1 <1>   1.3330 
  2 O       -0.8510     1.0970     0.5460 O.2   1 <1>  -0.6500 
  3 O        1.6560     1.1720     0.4080 O.2   1 <1>  -0.6500 
  4 N        0.4580    -1.0970     0.7420 N.am  1 <1>  -0.6930 
  5 C        0.2970     0.2220    -1.6330 C.3   1 <1>  -0.1350 
  6 C        1.5380    -1.9450     0.5490 C.ar  1 <1>   0.1990 
  7 C       -0.7420    -1.5840     1.4640 C.3   1 <1>   0.1160 
  8 C        1.3680    -3.1760    -0.0760 C.ar  1 <1>  -0.1500 
  9 C        2.8170    -1.6060     0.9730 C.ar  1 <1>  -0.1500 
 10 C        2.4390    -4.0250    -0.2760 C.ar  1 <1>  -0.1500 
 11 C        3.8870    -2.4560     0.7730 C.ar  1 <1>  -0.1500 
 12 C        3.7330    -3.6920     0.1340 C.ar  1 <1>   0.0860 
 13 C        4.8430    -4.5970    -0.0980 C.2   1 <1>   0.5440 
 14 O        4.6380    -5.7700    -0.3370 O.2   1 <1>  -0.5700 
 15 N        6.1320    -4.1060    -0.0630 N.am  1 <1>  -0.4940 
 16 C        7.3950    -4.6700    -0.1600 C.2   1 <1>   0.1040 
 17 S        7.5880    -6.3960    -0.4310 S.3   1 <1>  -0.0800 
 18 C        8.6140    -4.0450    -0.0630 C.2   1 <1>  -0.0860 
 19 C        9.3300    -6.2480    -0.4300 C.2   1 <1>  -0.1400 
 20 C        9.7110    -4.9750    -0.2490 C.2   1 <1>  -0.1810 
 21 C        8.7320    -2.6330     0.2110 C.2   1 <1>   0.8060 
 22 C       10.1830    -7.4810    -0.6260 C.3   1 <1>   0.0200 
 23 C       11.1970    -4.6220    -0.2500 C.3   1 <1>   0.0210 
 24 O        7.7660    -1.8890     0.2710 O.2   1 <1>  -0.5700 
 25 O        9.9410    -2.1000     0.4300 O.3   1 <1>  -0.4300 
 26 C       11.6370    -7.1480    -0.2550 C.3   1 <1>  -0.1600 
 27 C       12.0610    -5.7730    -0.8060 C.3   1 <1>  -0.1600 
 28 C       10.1170    -0.7260     0.7160 C.3   1 <1>   0.0400 
 29 H        0.2390     1.1540    -2.1610 H     1 <1>   0.0800 
 30 H       -0.5760    -0.3570    -1.8580 H     1 <1>   0.0800 
 31 H        1.1650    -0.3100    -1.9690 H     1 <1>   0.0800 
 32 H       -0.9660    -0.9170     2.2800 H     1 <1>   0.0800 
 33 H       -0.5700    -2.5690     1.8630 H     1 <1>   0.0800 
 34 H       -1.5860    -1.6120     0.7970 H     1 <1>   0.0800 
 35 H        0.3890    -3.4650    -0.4090 H     1 <1>   0.1500 
 36 H        2.9700    -0.6660     1.4740 H     1 <1>   0.1500 
 37 H        2.2800    -4.9740    -0.7630 H     1 <1>   0.1500 
 38 H        4.8530    -2.1450     1.1310 H     1 <1>   0.1500 
 39 H        6.1740    -3.0890     0.0520 H     1 <1>   0.3700 
 40 H       10.1200    -7.7860    -1.6550 H     1 <1>   0.0800 
 41 H        9.8210    -8.2830    -0.0070 H     1 <1>   0.0800 
 42 H       11.4990    -4.3980     0.7580 H     1 <1>   0.0800 
 43 H       11.3690    -3.7510    -0.8570 H     1 <1>   0.0800 
 44 H       12.2890    -7.9150    -0.6340 H     1 <1>   0.0800 
 45 H       11.7290    -7.1350     0.8180 H     1 <1>   0.0800 
 46 H       13.0940    -5.5870    -0.5700 H     1 <1>   0.0800 
 47 H       11.9680    -5.7880    -1.8780 H     1 <1>   0.0800 
 48 H       11.1670    -0.5380     0.8530 H     1 <1>   0.0800 
 49 H        9.5780    -0.4840     1.6160 H     1 <1>   0.0800 
 50 H        9.7420    -0.1460    -0.1100 H     1 <1>   0.0800 
@<TRIPOS>BOND
  1   1   2  2   
  2   1   3  2   
  3   1   4  am  
  4   1   5  1   
  5   4   6  1   
  6   4   7  1   
  7   5  29  1   
  8   5  30  1   
  9   5  31  1   
 10   6   8  ar  
 11   6   9  ar  
 12   7  32  1   
 13   7  33  1   
 14   7  34  1   
 15   8  10  ar  
 16   8  35  1   
 17   9  11  ar  
 18   9  36  1   
 19  10  12  ar  
 20  10  37  1   
 21  11  12  ar  
 22  11  38  1   
 23  12  13  1   
 24  13  14  2   
 25  13  15  am  
 26  15  16  1   
 27  15  39  1   
 28  16  17  1   
 29  16  18  2   
 30  17  19  1   
 31  18  20  1   
 32  18  21  1   
 33  19  20  2   
 34  19  22  1   
 35  20  23  1   
 36  21  24  2   
 37  21  25  1   
 38  22  26  1   
 39  22  40  1   
 40  22  41  1   
 41  23  27  1   
 42  23  42  1   
 43  23  43  1   
 44  25  28  1   
 45  26  27  1   
 46  26  44  1   
 47  26  45  1   
 48  27  46  1   
 49  27  47  1   
 50  28  48  1   
 51  28  49  1   
 52  28  50  1   
@<TRIPOS>SUBSTRUCTURE
  1 ****  15 GROUP 4 **** **** 0

# MOE 2024.06 (io_trps.svl 2023.06)
