@<TRIPOS>MOLECULE
2-(4-sec-Butyl-phenoxy)-N-(2-ethyl-2H-tetrazol-5-yl)-acetamide
43 44 1 0 0 
SMALL
USER_CHARGES


@<TRIPOS>ATOM
  1 O       -0.6610    -0.9950     2.8800 O.2   1 <1>  -0.5700 
  2 C       -0.2280    -1.3680     1.8170 C.2   1 <1>   0.5690 
  3 N       -0.9400    -1.3530     0.6600 N.am  1 <1>  -0.4930 
  4 C        1.2030    -1.8860     1.7770 C.3   1 <1>   0.1810 
  5 C       -2.2370    -0.9480     0.3920 C.2   1 <1>   0.5790 
  6 O        1.5730    -2.2820     0.4630 O.3   1 <1>  -0.3630 
  7 N       -3.1000    -0.4650     1.2830 N.2   1 <1>  -0.2270 
  8 N       -2.6900    -1.0270    -0.7990 N.2   1 <1>  -0.7070 
  9 C        2.8090    -2.7770     0.2040 C.ar  1 <1>   0.0830 
 10 N       -4.1690    -0.2190     0.6330 N.2   1 <1>  -0.4180 
 11 N       -3.9130    -0.5620    -0.6170 N.pl3 1 <1>   0.5800 
 12 C        3.0760    -3.1360    -1.1070 C.ar  1 <1>  -0.1500 
 13 C        3.7990    -2.9380     1.1690 C.ar  1 <1>  -0.1500 
 14 C       -4.8970    -0.4350    -1.7120 C.3   1 <1>   0.0960 
 15 C        4.3120    -3.6490    -1.4560 C.ar  1 <1>  -0.1500 
 16 C        5.0340    -3.4520     0.8140 C.ar  1 <1>  -0.1500 
 17 C       -5.6450    -1.7540    -1.9590 C.3   1 <1>  -0.2400 
 18 C        5.3040    -3.8120    -0.4990 C.ar  1 <1>  -0.1430 
 19 C        6.6750    -4.3770    -0.8690 C.3   1 <1>   0.0630 
 20 C        7.3920    -3.4290    -1.8490 C.3   1 <1>  -0.1600 
 21 C        6.5280    -5.8000    -1.4250 C.3   1 <1>  -0.2400 
 22 C        8.8530    -3.8170    -2.1190 C.3   1 <1>  -0.2400 
 23 H       -0.4580    -1.6930    -0.1680 H     1 <1>   0.3700 
 24 H        1.2890    -2.7380     2.4270 H     1 <1>   0.0800 
 25 H        1.8710    -1.1080     2.0990 H     1 <1>   0.0800 
 26 H        2.3130    -3.0120    -1.8540 H     1 <1>   0.1500 
 27 H        3.6350    -2.6730     2.1950 H     1 <1>   0.1500 
 28 H       -4.3720    -0.1360    -2.6000 H     1 <1>   0.0800 
 29 H       -5.5940     0.3390    -1.4480 H     1 <1>   0.0800 
 30 H        4.4970    -3.9200    -2.4800 H     1 <1>   0.1500 
 31 H        5.7900    -3.5700     1.5700 H     1 <1>   0.1500 
 32 H       -4.9510    -2.5300    -2.2340 H     1 <1>   0.0800 
 33 H       -6.3520    -1.6290    -2.7600 H     1 <1>   0.0800 
 34 H       -6.1790    -2.0520    -1.0740 H     1 <1>   0.0800 
 35 H        7.2700    -4.4370     0.0260 H     1 <1>   0.0800 
 36 H        7.3750    -2.4360    -1.4340 H     1 <1>   0.0800 
 37 H        6.8580    -3.3970    -2.7830 H     1 <1>   0.0800 
 38 H        6.0360    -5.7890    -2.3810 H     1 <1>   0.0800 
 39 H        5.9440    -6.3970    -0.7470 H     1 <1>   0.0800 
 40 H        7.4900    -6.2650    -1.5370 H     1 <1>   0.0800 
 41 H        9.4030    -3.8820    -1.1960 H     1 <1>   0.0800 
 42 H        9.3180    -3.0710    -2.7390 H     1 <1>   0.0800 
 43 H        8.9130    -4.7610    -2.6290 H     1 <1>   0.0800 
@<TRIPOS>BOND
  1   1   2  2   
  2   2   3  am  
  3   2   4  1   
  4   3   5  1   
  5   3  23  1   
  6   4   6  1   
  7   4  24  1   
  8   4  25  1   
  9   5   7  1   
 10   5   8  2   
 11   6   9  1   
 12   7  10  2   
 13   8  11  1   
 14   9  12  ar  
 15   9  13  ar  
 16  10  11  1   
 17  11  14  1   
 18  12  15  ar  
 19  12  26  1   
 20  13  16  ar  
 21  13  27  1   
 22  14  17  1   
 23  14  28  1   
 24  14  29  1   
 25  15  18  ar  
 26  15  30  1   
 27  16  18  ar  
 28  16  31  1   
 29  17  32  1   
 30  17  33  1   
 31  17  34  1   
 32  18  19  1   
 33  19  20  1   
 34  19  21  1   
 35  19  35  1   
 36  20  22  1   
 37  20  36  1   
 38  20  37  1   
 39  21  38  1   
 40  21  39  1   
 41  21  40  1   
 42  22  41  1   
 43  22  42  1   
 44  22  43  1   
@<TRIPOS>SUBSTRUCTURE
  1 ****   6 GROUP 4 **** **** 0

# MOE 2024.06 (io_trps.svl 2023.06)
