@<TRIPOS>MOLECULE
3-Piperidin-4-yl-propan-1-ol
28 28 1 0 0 
SMALL
USER_CHARGES


@<TRIPOS>ATOM
  1 O       -0.1910     0.2510     0.4510 O.3   1 <1>  -0.6800 
  2 C       -0.8090     1.4090     0.0230 C.3   1 <1>   0.1200 
  3 C       -2.2950     1.2850     0.3530 C.3   1 <1>  -0.1600 
  4 C       -3.0810     2.5210    -0.1130 C.3   1 <1>  -0.1600 
  5 C       -4.5570     2.4990     0.3280 C.3   1 <1>  -0.0800 
  6 C       -5.3340     1.3190    -0.2870 C.3   1 <1>  -0.1600 
  7 C       -5.2360     3.8260    -0.0510 C.3   1 <1>  -0.1600 
  8 C       -6.8210     1.3680     0.0610 C.3   1 <1>   0.3430 
  9 C       -6.7240     3.8280     0.3000 C.3   1 <1>   0.3430 
 10 N       -7.3900     2.6750    -0.3610 N.4   1 <1>  -0.9060 
 11 H        0.7690     0.2810     0.2680 H     1 <1>   0.4000 
 12 H       -0.6520     1.5060    -1.0380 H     1 <1>   0.0800 
 13 H       -0.3630     2.2440     0.5380 H     1 <1>   0.0800 
 14 H       -2.4010     1.1680     1.4180 H     1 <1>   0.0800 
 15 H       -2.6710     0.4020    -0.1320 H     1 <1>   0.0800 
 16 H       -3.0180     2.5970    -1.1860 H     1 <1>   0.0800 
 17 H       -2.6090     3.3960     0.3020 H     1 <1>   0.0800 
 18 H       -4.5820     2.4020     1.4020 H     1 <1>   0.0800 
 19 H       -4.9390     0.3900     0.0850 H     1 <1>   0.0800 
 20 H       -5.2150     1.3120    -1.3570 H     1 <1>   0.0800 
 21 H       -5.1190     4.0180    -1.1040 H     1 <1>   0.0800 
 22 H       -4.7580     4.6340     0.4760 H     1 <1>   0.0800 
 23 H       -6.9430     1.2430     1.1260 H     1 <1>   0.0800 
 24 H       -7.3360     0.5600    -0.4350 H     1 <1>   0.0800 
 25 H       -7.1720     4.7540    -0.0260 H     1 <1>   0.0800 
 26 H       -6.8410     3.7540     1.3700 H     1 <1>   0.0800 
 27 H       -8.3990     2.6950    -0.1640 H     1 <1>   0.4500 
 28 H       -7.2780     2.7690    -1.3770 H     1 <1>   0.4500 
@<TRIPOS>BOND
  1   1   2  1   
  2   1  11  1   
  3   2   3  1   
  4   2  12  1   
  5   2  13  1   
  6   3   4  1   
  7   3  14  1   
  8   3  15  1   
  9   4   5  1   
 10   4  16  1   
 11   4  17  1   
 12   5   6  1   
 13   5   7  1   
 14   5  18  1   
 15   6   8  1   
 16   6  19  1   
 17   6  20  1   
 18   7   9  1   
 19   7  21  1   
 20   7  22  1   
 21   8  10  1   
 22   8  23  1   
 23   8  24  1   
 24   9  10  1   
 25   9  25  1   
 26   9  26  1   
 27  10  27  1   
 28  10  28  1   
@<TRIPOS>SUBSTRUCTURE
  1 ****   5 GROUP 4 **** **** 0

# MOE 2024.06 (io_trps.svl 2023.06)
