@<TRIPOS>MOLECULE
2-Ethyl-5-isopropyl-2H-pyrazole-3-carboxylic acid
26 26 1 0 0 
SMALL
USER_CHARGES


@<TRIPOS>ATOM
  1 O        0.1710     0.5130    -1.6150 O.co2 1 <1>  -0.9000 
  2 C        0.5900     1.6830    -1.5970 C.2   1 <1>   1.0320 
  3 O       -0.0710     2.5600    -2.1790 O.co2 1 <1>  -0.9000 
  4 C        1.8130     2.0370    -0.9290 C.2   1 <1>  -0.3840 
  5 N        2.6000     1.2020    -0.2050 N.pl3 1 <1>   0.3140 
  6 C        2.4290     3.2480    -0.8760 C.2   1 <1>  -0.1500 
  7 N        3.6840     1.8380     0.2950 N.2   1 <1>  -0.7070 
  8 C        2.4030    -0.2370     0.0840 C.3   1 <1>   0.0960 
  9 C        3.5690     3.0640    -0.1140 C.2   1 <1>   0.1080 
 10 C        1.4500    -0.4410     1.2690 C.3   1 <1>  -0.2400 
 11 C        4.5860     4.1460     0.2260 C.3   1 <1>   0.1010 
 12 C        3.9360     5.2700     1.0410 C.3   1 <1>  -0.2400 
 13 C        5.2340     4.7050    -1.0470 C.3   1 <1>  -0.2400 
 14 H        2.0870     4.1560    -1.3380 H     1 <1>   0.1500 
 15 H        3.3620    -0.6610     0.3140 H     1 <1>   0.0800 
 16 H        2.0260    -0.7240    -0.7960 H     1 <1>   0.0800 
 17 H        1.8350     0.0530     2.1420 H     1 <1>   0.0800 
 18 H        1.3420    -1.4900     1.4740 H     1 <1>   0.0800 
 19 H        0.4810    -0.0390     1.0270 H     1 <1>   0.0800 
 20 H        5.3560     3.6920     0.8260 H     1 <1>   0.0800 
 21 H        3.1670     5.7540     0.4660 H     1 <1>   0.0800 
 22 H        4.6710     5.9980     1.3300 H     1 <1>   0.0800 
 23 H        3.4900     4.8560     1.9280 H     1 <1>   0.0800 
 24 H        4.4940     5.1770    -1.6680 H     1 <1>   0.0800 
 25 H        5.6830     3.9010    -1.6030 H     1 <1>   0.0800 
 26 H        5.9940     5.4220    -0.7980 H     1 <1>   0.0800 
@<TRIPOS>BOND
  1   1   2  ar  
  2   2   3  ar  
  3   2   4  1   
  4   4   5  1   
  5   4   6  2   
  6   5   7  1   
  7   5   8  1   
  8   6   9  1   
  9   6  14  1   
 10   7   9  2   
 11   8  10  1   
 12   8  15  1   
 13   8  16  1   
 14   9  11  1   
 15  10  17  1   
 16  10  18  1   
 17  10  19  1   
 18  11  12  1   
 19  11  13  1   
 20  11  20  1   
 21  12  21  1   
 22  12  22  1   
 23  12  23  1   
 24  13  24  1   
 25  13  25  1   
 26  13  26  1   
@<TRIPOS>SUBSTRUCTURE
  1 ****   4 GROUP 4 **** **** 0

# MOE 2024.06 (io_trps.svl 2023.06)
