@<TRIPOS>MOLECULE
4-m-Tolyl-tetrahydro-pyran-4-carboxylic acid
31 32 1 0 0 
SMALL
USER_CHARGES


@<TRIPOS>ATOM
  1 O       -2.3380    -0.7260    -2.8140 O.co2 1 <1>  -0.9000 
  2 C       -1.6250    -0.8610    -1.8050 C.2   1 <1>   0.9060 
  3 O       -0.3900    -0.9150    -1.9150 O.co2 1 <1>  -0.9000 
  4 C       -2.2890    -1.0230    -0.4040 C.3   1 <1>   0.0370 
  5 C       -2.5100     0.3650     0.2510 C.ar  1 <1>  -0.1440 
  6 C       -1.4350    -1.9770     0.4730 C.3   1 <1>  -0.1600 
  7 C       -3.6690    -1.7170    -0.5310 C.3   1 <1>  -0.1600 
  8 C       -3.1810     1.3400    -0.4770 C.ar  1 <1>  -0.1500 
  9 C       -2.0820     0.6950     1.5340 C.ar  1 <1>  -0.1500 
 10 C       -1.3920    -3.3850    -0.1320 C.3   1 <1>   0.1200 
 11 C       -3.5260    -3.1490    -1.0630 C.3   1 <1>   0.1200 
 12 C       -3.4310     2.5990     0.0440 C.ar  1 <1>  -0.1440 
 13 C       -2.3290     1.9490     2.0660 C.ar  1 <1>  -0.1500 
 14 O       -2.6950    -3.8840    -0.2140 O.3   1 <1>  -0.5600 
 15 C       -3.0040     2.9010     1.3250 C.ar  1 <1>  -0.1500 
 16 C       -4.1630     3.6270    -0.7960 C.3   1 <1>  -0.0970 
 17 H       -1.8510    -2.0630     1.4590 H     1 <1>   0.0800 
 18 H       -0.4340    -1.5950     0.5550 H     1 <1>   0.0800 
 19 H       -4.2980    -1.1610    -1.2030 H     1 <1>   0.0800 
 20 H       -4.1580    -1.7430     0.4260 H     1 <1>   0.0800 
 21 H       -3.5100     1.1130    -1.4780 H     1 <1>   0.1500 
 22 H       -1.5470    -0.0080     2.1400 H     1 <1>   0.1500 
 23 H       -0.8250    -4.0480     0.4960 H     1 <1>   0.0800 
 24 H       -0.9560    -3.3800    -1.1180 H     1 <1>   0.0800 
 25 H       -3.1030    -3.1550    -2.0550 H     1 <1>   0.0800 
 26 H       -4.4840    -3.6370    -1.0900 H     1 <1>   0.0800 
 27 H       -1.9900     2.1830     3.0590 H     1 <1>   0.1500 
 28 H       -3.1910     3.8720     1.7460 H     1 <1>   0.1500 
 29 H       -5.2200     3.4380    -0.7600 H     1 <1>   0.0800 
 30 H       -3.8340     3.5650    -1.8180 H     1 <1>   0.0800 
 31 H       -3.9710     4.6210    -0.4350 H     1 <1>   0.0800 
@<TRIPOS>BOND
  1   1   2  ar  
  2   2   3  ar  
  3   2   4  1   
  4   4   5  1   
  5   4   6  1   
  6   4   7  1   
  7   5   8  ar  
  8   5   9  ar  
  9   6  10  1   
 10   6  17  1   
 11   6  18  1   
 12   7  11  1   
 13   7  19  1   
 14   7  20  1   
 15   8  12  ar  
 16   8  21  1   
 17   9  13  ar  
 18   9  22  1   
 19  10  14  1   
 20  10  23  1   
 21  10  24  1   
 22  11  14  1   
 23  11  25  1   
 24  11  26  1   
 25  12  15  ar  
 26  12  16  1   
 27  13  15  ar  
 28  13  27  1   
 29  15  28  1   
 30  16  29  1   
 31  16  30  1   
 32  16  31  1   
@<TRIPOS>SUBSTRUCTURE
  1 ****   4 GROUP 4 **** **** 0

# MOE 2024.06 (io_trps.svl 2023.06)
