@<TRIPOS>MOLECULE
N-(4-Ethyl-5-mercapto-4H-[1,2,4]triazol-3-ylmethyl)-2-methyl-benzamide
35 36 1 0 0 
SMALL
USER_CHARGES


@<TRIPOS>ATOM
  1 S       -0.7590    -0.0750    -1.9680 S.3   1 <1>  -0.9360 
  2 C       -1.3450     1.3980    -1.6240 C.cat 1 <1>   0.7360 
  3 N       -0.9860     2.5020    -2.2390 N.pl3 1 <1>  -0.3930 
  4 N       -2.2430     1.7020    -0.7070 N.pl3 1 <1>  -0.7640 
  5 N       -1.6580     3.5770    -1.7310 N.2   1 <1>  -0.2600 
  6 C       -2.4050     3.0670    -0.8160 C.2   1 <1>   0.4850 
  7 C       -2.8910     0.7210     0.1850 C.3   1 <1>   0.3540 
  8 C       -3.3650     3.8900     0.0460 C.3   1 <1>   0.3080 
  9 C       -2.2250     0.7640     1.5560 C.3   1 <1>  -0.2400 
 10 N       -4.8010     3.6380    -0.2810 N.am  1 <1>  -0.7300 
 11 C       -5.6850     3.0050     0.5420 C.2   1 <1>   0.5440 
 12 O       -5.2810     2.5920     1.6090 O.2   1 <1>  -0.5700 
 13 C       -7.0540     2.7860     0.1180 C.ar  1 <1>   0.0860 
 14 C       -7.9370     3.8290    -0.1940 C.ar  1 <1>  -0.1430 
 15 C       -7.5210     1.4770     0.0000 C.ar  1 <1>  -0.1500 
 16 C       -9.2210     3.5470    -0.6330 C.ar  1 <1>  -0.1500 
 17 C       -7.5260     5.2900    -0.0460 C.3   1 <1>  -0.0970 
 18 C       -8.8030     1.2020    -0.4360 C.ar  1 <1>  -0.1500 
 19 C       -9.6550     2.2400    -0.7570 C.ar  1 <1>  -0.1500 
 20 H       -0.2930     2.4800    -2.9860 H     1 <1>   0.4500 
 21 H       -2.7930    -0.2690    -0.2290 H     1 <1>   0.0800 
 22 H       -3.9400     0.9360     0.2680 H     1 <1>   0.0800 
 23 H       -3.1580     4.9340    -0.1060 H     1 <1>   0.0800 
 24 H       -3.1750     3.6730     1.0820 H     1 <1>   0.0800 
 25 H       -1.1760     0.5450     1.4600 H     1 <1>   0.0800 
 26 H       -2.6710     0.0210     2.1910 H     1 <1>   0.0800 
 27 H       -2.3570     1.7240     2.0170 H     1 <1>   0.0800 
 28 H       -5.0980     3.8700    -1.2310 H     1 <1>   0.3700 
 29 H       -6.8630     0.6650     0.2550 H     1 <1>   0.1500 
 30 H       -9.9000     4.3460    -0.8790 H     1 <1>   0.1500 
 31 H       -6.8940     5.5830    -0.8650 H     1 <1>   0.0800 
 32 H       -6.9950     5.4380     0.8780 H     1 <1>   0.0800 
 33 H       -8.3890     5.9310    -0.0360 H     1 <1>   0.0800 
 34 H       -9.1380     0.1820    -0.5230 H     1 <1>   0.1500 
 35 H      -10.6550     2.0330    -1.0990 H     1 <1>   0.1500 
@<TRIPOS>BOND
  1   1   2  1   
  2   2   3  ar  
  3   2   4  ar  
  4   3   5  1   
  5   3  20  1   
  6   4   6  1   
  7   4   7  1   
  8   5   6  2   
  9   6   8  1   
 10   7   9  1   
 11   7  21  1   
 12   7  22  1   
 13   8  10  1   
 14   8  23  1   
 15   8  24  1   
 16   9  25  1   
 17   9  26  1   
 18   9  27  1   
 19  10  11  am  
 20  10  28  1   
 21  11  12  2   
 22  11  13  1   
 23  13  14  ar  
 24  13  15  ar  
 25  14  16  ar  
 26  14  17  1   
 27  15  18  ar  
 28  15  29  1   
 29  16  19  ar  
 30  16  30  1   
 31  17  31  1   
 32  17  32  1   
 33  17  33  1   
 34  18  19  ar  
 35  18  34  1   
 36  19  35  1   
@<TRIPOS>SUBSTRUCTURE
  1 ****  10 GROUP 4 **** **** 0

# MOE 2024.06 (io_trps.svl 2023.06)
