@<TRIPOS>MOLECULE
N-(3,4-Dichloro-phenyl)-2-(4-ethyl-1,3-dioxo-1,3,3a,4,7,7a-hexahydro-isoindol-2-
43 45 1 0 0 
SMALL
USER_CHARGES


@<TRIPOS>ATOM
  1 CL      -4.5400    -0.9230     0.9180 Cl    1 <1>  -0.1770 
  2 C       -3.6680     0.4490     0.2740 C.ar  1 <1>   0.1770 
  3 C       -2.4550     0.2770    -0.3720 C.ar  1 <1>   0.1770 
  4 C       -4.2120     1.7110     0.4220 C.ar  1 <1>  -0.1500 
  5 CL      -1.7570    -1.3160    -0.5640 Cl    1 <1>  -0.1770 
  6 C       -1.7770     1.3720    -0.8750 C.ar  1 <1>  -0.1500 
  7 C       -3.5470     2.8230    -0.0830 C.ar  1 <1>   0.1170 
  8 C       -2.3230     2.6360    -0.7270 C.ar  1 <1>  -0.1500 
  9 N       -4.1400     4.0810     0.0920 N.am  1 <1>  -0.5470 
 10 C       -3.9660     5.2720    -0.5630 C.2   1 <1>   0.5690 
 11 O       -3.1780     5.4220    -1.4640 O.2   1 <1>  -0.5700 
 12 C       -4.8030     6.4710    -0.1260 C.3   1 <1>   0.2010 
 13 N       -6.2700     6.2620    -0.3050 N.am  1 <1>  -0.4200 
 14 C       -7.0200     5.3620     0.3920 C.2   1 <1>   0.5690 
 15 C       -7.0290     6.9330    -1.2180 C.2   1 <1>   0.5690 
 16 O       -6.6110     4.6590     1.2830 O.2   1 <1>  -0.5700 
 17 C       -8.4050     5.2940    -0.2090 C.3   1 <1>  -0.0190 
 18 O       -6.6240     7.7050    -2.0460 O.2   1 <1>  -0.5700 
 19 C       -8.4870     6.6040    -1.0000 C.3   1 <1>  -0.0190 
 20 C       -9.7090     5.0460     0.5730 C.3   1 <1>   0.0580 
 21 C       -9.4500     6.4270    -2.1790 C.3   1 <1>  -0.0220 
 22 C      -10.8390     5.1690    -0.4550 C.2   1 <1>  -0.2880 
 23 C      -10.0300     5.9890     1.7520 C.3   1 <1>  -0.1600 
 24 C      -10.7240     5.7580    -1.6570 C.2   1 <1>  -0.2880 
 25 C       -8.9990     5.9850     2.8870 C.3   1 <1>  -0.2400 
 26 H       -5.1550     1.8220     0.9270 H     1 <1>   0.1500 
 27 H       -0.8350     1.2350    -1.3750 H     1 <1>   0.1500 
 28 H       -1.7860     3.4820    -1.1180 H     1 <1>   0.1500 
 29 H       -4.9150     4.0900     0.7700 H     1 <1>   0.3700 
 30 H       -4.4930     7.3290    -0.6980 H     1 <1>   0.0800 
 31 H       -4.6020     6.6740     0.9090 H     1 <1>   0.0800 
 32 H       -8.3330     4.4870    -0.9190 H     1 <1>   0.0800 
 33 H       -8.8720     7.3880    -0.3740 H     1 <1>   0.0800 
 34 H       -9.6840     4.0340     0.9420 H     1 <1>   0.0800 
 35 H       -9.0050     5.8170    -2.9470 H     1 <1>   0.0800 
 36 H       -9.6780     7.3910    -2.6010 H     1 <1>   0.0800 
 37 H      -11.7610     4.7250    -0.1160 H     1 <1>   0.1500 
 38 H      -10.9730     5.6770     2.1680 H     1 <1>   0.0800 
 39 H      -10.1690     6.9960     1.4020 H     1 <1>   0.0800 
 40 H      -11.5410     5.8060    -2.3600 H     1 <1>   0.1500 
 41 H       -8.0980     6.4900     2.5950 H     1 <1>   0.0800 
 42 H       -8.7600     4.9770     3.1810 H     1 <1>   0.0800 
 43 H       -9.4010     6.5000     3.7430 H     1 <1>   0.0800 
@<TRIPOS>BOND
  1   1   2  1   
  2   2   3  ar  
  3   2   4  ar  
  4   3   5  1   
  5   3   6  ar  
  6   4   7  ar  
  7   4  26  1   
  8   6   8  ar  
  9   6  27  1   
 10   7   8  ar  
 11   7   9  1   
 12   8  28  1   
 13   9  10  am  
 14   9  29  1   
 15  10  11  2   
 16  10  12  1   
 17  12  13  1   
 18  12  30  1   
 19  12  31  1   
 20  13  14  am  
 21  13  15  am  
 22  14  16  2   
 23  14  17  1   
 24  15  18  2   
 25  15  19  1   
 26  17  19  1   
 27  17  20  1   
 28  17  32  1   
 29  19  21  1   
 30  19  33  1   
 31  20  22  1   
 32  20  23  1   
 33  20  34  1   
 34  21  24  1   
 35  21  35  1   
 36  21  36  1   
 37  22  24  2   
 38  22  37  1   
 39  23  25  1   
 40  23  38  1   
 41  23  39  1   
 42  24  40  1   
 43  25  41  1   
 44  25  42  1   
 45  25  43  1   
@<TRIPOS>SUBSTRUCTURE
  1 ****  14 GROUP 4 **** **** 0

# MOE 2024.06 (io_trps.svl 2023.06)
