@<TRIPOS>MOLECULE
1-(3-Benzoyl-imidazolidin-1-yl)-2-morpholin-4-yl-ethanone
43 45 1 0 0 
SMALL
USER_CHARGES


@<TRIPOS>ATOM
  1 O        1.2660    -0.5420     1.2570 O.2   1 <1>  -0.5700 
  2 C        2.1220    -1.1500     0.6450 C.2   1 <1>   0.5440 
  3 N        2.9260    -0.4630    -0.2320 N.am  1 <1>  -0.6600 
  4 C        2.3060    -2.5720     0.8760 C.ar  1 <1>   0.0860 
  5 C        4.1820    -1.0280    -0.7450 C.3   1 <1>   0.4400 
  6 C        2.9700     1.0150    -0.2980 C.3   1 <1>   0.1400 
  7 C        2.2780    -3.4960    -0.1690 C.ar  1 <1>  -0.1500 
  8 C        2.5470    -3.0570     2.1600 C.ar  1 <1>  -0.1500 
  9 N        5.1180     0.1020    -0.7800 N.am  1 <1>  -0.6600 
 10 C        4.4500     1.3600    -0.3890 C.3   1 <1>   0.1400 
 11 C        2.5110    -4.8410     0.0540 C.ar  1 <1>  -0.1500 
 12 C        2.7790    -4.4000     2.3910 C.ar  1 <1>  -0.1500 
 13 C        6.4680    -0.0060    -0.9750 C.2   1 <1>   0.5690 
 14 C        2.7670    -5.2950     1.3350 C.ar  1 <1>  -0.1500 
 15 O        7.1890     0.9550    -0.8360 O.2   1 <1>  -0.5700 
 16 C        7.1290    -1.3330    -1.4030 C.3   1 <1>   0.1710 
 17 N        6.7180    -2.5510    -0.6490 N.3   1 <1>  -0.8100 
 18 C        7.2970    -3.7780    -1.2250 C.3   1 <1>   0.1100 
 19 C        7.0870    -2.4610     0.7800 C.3   1 <1>   0.1100 
 20 C        6.8620    -5.0150    -0.4160 C.3   1 <1>   0.1200 
 21 C        6.6570    -3.7340     1.5320 C.3   1 <1>   0.1200 
 22 O        7.2140    -4.8690     0.9300 O.3   1 <1>  -0.5600 
 23 H        4.0410    -1.4280    -1.7340 H     1 <1>   0.0800 
 24 H        4.5380    -1.7940    -0.0800 H     1 <1>   0.0800 
 25 H        2.5220     1.4680     0.5700 H     1 <1>   0.0800 
 26 H        2.4520     1.3500    -1.1790 H     1 <1>   0.0800 
 27 H        2.0710    -3.1500    -1.1670 H     1 <1>   0.1500 
 28 H        2.5520    -2.3620     2.9830 H     1 <1>   0.1500 
 29 H        4.8200     1.6800     0.5700 H     1 <1>   0.0800 
 30 H        4.6310     2.1330    -1.1160 H     1 <1>   0.0800 
 31 H        2.4890    -5.5370    -0.7670 H     1 <1>   0.1500 
 32 H        2.9680    -4.7520     3.3910 H     1 <1>   0.1500 
 33 H        2.9500    -6.3410     1.5130 H     1 <1>   0.1500 
 34 H        8.1950    -1.2130    -1.3230 H     1 <1>   0.0800 
 35 H        6.8990    -1.4760    -2.4430 H     1 <1>   0.0800 
 36 H        8.3720    -3.7180    -1.2230 H     1 <1>   0.0800 
 37 H        6.9660    -3.8890    -2.2430 H     1 <1>   0.0800 
 38 H        6.6030    -1.6110     1.2300 H     1 <1>   0.0800 
 39 H        8.1510    -2.3340     0.8820 H     1 <1>   0.0800 
 40 H        7.3510    -5.8970    -0.7890 H     1 <1>   0.0800 
 41 H        5.7970    -5.1520    -0.4800 H     1 <1>   0.0800 
 42 H        5.5850    -3.8320     1.5280 H     1 <1>   0.0800 
 43 H        7.0000    -3.7000     2.5500 H     1 <1>   0.0800 
@<TRIPOS>BOND
  1   1   2  2   
  2   2   3  am  
  3   2   4  1   
  4   3   5  1   
  5   3   6  1   
  6   4   7  ar  
  7   4   8  ar  
  8   5   9  1   
  9   5  23  1   
 10   5  24  1   
 11   6  10  1   
 12   6  25  1   
 13   6  26  1   
 14   7  11  ar  
 15   7  27  1   
 16   8  12  ar  
 17   8  28  1   
 18   9  10  1   
 19   9  13  am  
 20  10  29  1   
 21  10  30  1   
 22  11  14  ar  
 23  11  31  1   
 24  12  14  ar  
 25  12  32  1   
 26  13  15  2   
 27  13  16  1   
 28  14  33  1   
 29  16  17  1   
 30  16  34  1   
 31  16  35  1   
 32  17  18  1   
 33  17  19  1   
 34  18  20  1   
 35  18  36  1   
 36  18  37  1   
 37  19  21  1   
 38  19  38  1   
 39  19  39  1   
 40  20  22  1   
 41  20  40  1   
 42  20  41  1   
 43  21  22  1   
 44  21  42  1   
 45  21  43  1   
@<TRIPOS>SUBSTRUCTURE
  1 ****   5 GROUP 4 **** **** 0

# MOE 2024.06 (io_trps.svl 2023.06)
