@<TRIPOS>MOLECULE
1-(Toluene-4-sulfonyl)-piperidine-4-carboxylic acid (2-methoxy-1-methyl-ethyl)-a
50 51 1 0 0 
SMALL
USER_CHARGES


@<TRIPOS>ATOM
  1 S       -0.5240     0.9590    -1.9520 S.o2  1 <1>   1.4470 
  2 O       -0.1660     0.3070    -3.1940 O.2   1 <1>  -0.6500 
  3 O       -1.3330     2.1570    -1.9950 O.2   1 <1>  -0.6500 
  4 N        0.9380     1.3680    -1.1930 N.am  1 <1>  -0.8490 
  5 C       -1.2740    -0.2330    -0.8070 C.ar  1 <1>  -0.0090 
  6 C        1.5190     2.5760    -1.7810 C.3   1 <1>   0.1960 
  7 C        1.8880     0.2510    -1.1980 C.3   1 <1>   0.1960 
  8 C       -1.3910     0.0550     0.5480 C.ar  1 <1>  -0.1500 
  9 C       -1.7490    -1.4610    -1.2520 C.ar  1 <1>  -0.1500 
 10 C        2.7620     3.0080    -0.9990 C.3   1 <1>  -0.1600 
 11 C        3.1340     0.6090    -0.3840 C.3   1 <1>  -0.1600 
 12 C       -1.9570    -0.8510     1.4290 C.ar  1 <1>  -0.1500 
 13 C       -2.3160    -2.3710    -0.3760 C.ar  1 <1>  -0.1500 
 14 C        3.8040     1.8810    -0.9300 C.3   1 <1>  -0.0190 
 15 C       -2.4230    -2.0700     0.9700 C.ar  1 <1>  -0.1430 
 16 C        5.0190     2.2960    -0.1020 C.2   1 <1>   0.5690 
 17 C       -3.0430    -3.0660     1.9340 C.3   1 <1>  -0.0970 
 18 O        4.9090     2.4080     1.0940 O.2   1 <1>  -0.5700 
 19 N        6.1880     2.5370    -0.7560 N.am  1 <1>  -0.7300 
 20 C        7.4660     3.0310    -0.1820 C.3   1 <1>   0.2200 
 21 C        7.8660     2.2840     1.1030 C.3   1 <1>   0.1200 
 22 C        7.3440     4.5390     0.0340 C.3   1 <1>  -0.2400 
 23 O        9.1960     2.5820     1.4140 O.3   1 <1>  -0.5600 
 24 C        9.6310     2.0110     2.6050 C.3   1 <1>   0.0400 
 25 H        0.8000     3.3790    -1.7490 H     1 <1>   0.0800 
 26 H        1.7710     2.3940    -2.8140 H     1 <1>   0.0800 
 27 H        2.1700     0.0100    -2.2110 H     1 <1>   0.0800 
 28 H        1.4280    -0.6210    -0.7620 H     1 <1>   0.0800 
 29 H       -1.0320     1.0020     0.9150 H     1 <1>   0.1500 
 30 H       -1.6750    -1.7090    -2.2970 H     1 <1>   0.1500 
 31 H        2.4640     3.2880    -0.0030 H     1 <1>   0.0800 
 32 H        3.1940     3.8750    -1.4660 H     1 <1>   0.0800 
 33 H        3.8300    -0.2100    -0.4150 H     1 <1>   0.0800 
 34 H        2.8460     0.7560     0.6430 H     1 <1>   0.0800 
 35 H       -2.0320    -0.6000     2.4730 H     1 <1>   0.1500 
 36 H       -2.6740    -3.3150    -0.7500 H     1 <1>   0.1500 
 37 H        4.1360     1.6730    -1.9310 H     1 <1>   0.0800 
 38 H       -3.5380    -2.5520     2.7380 H     1 <1>   0.0800 
 39 H       -2.2780    -3.7000     2.3450 H     1 <1>   0.0800 
 40 H       -3.7680    -3.6790     1.4280 H     1 <1>   0.0800 
 41 H        6.2000     2.4710    -1.7730 H     1 <1>   0.3700 
 42 H        8.2400     2.8460    -0.9080 H     1 <1>   0.0800 
 43 H        7.7830     1.2220     0.9550 H     1 <1>   0.0800 
 44 H        7.2450     2.5930     1.9270 H     1 <1>   0.0800 
 45 H        6.5810     4.7510     0.7620 H     1 <1>   0.0800 
 46 H        7.1080     5.0340    -0.8890 H     1 <1>   0.0800 
 47 H        8.2780     4.9280     0.4000 H     1 <1>   0.0800 
 48 H       10.6590     2.2900     2.7540 H     1 <1>   0.0800 
 49 H        9.5520     0.9400     2.5360 H     1 <1>   0.0800 
 50 H        9.0310     2.3840     3.4170 H     1 <1>   0.0800 
@<TRIPOS>BOND
  1   1   2  2   
  2   1   3  2   
  3   1   4  am  
  4   1   5  1   
  5   4   6  1   
  6   4   7  1   
  7   5   8  ar  
  8   5   9  ar  
  9   6  10  1   
 10   6  25  1   
 11   6  26  1   
 12   7  11  1   
 13   7  27  1   
 14   7  28  1   
 15   8  12  ar  
 16   8  29  1   
 17   9  13  ar  
 18   9  30  1   
 19  10  14  1   
 20  10  31  1   
 21  10  32  1   
 22  11  14  1   
 23  11  33  1   
 24  11  34  1   
 25  12  15  ar  
 26  12  35  1   
 27  13  15  ar  
 28  13  36  1   
 29  14  16  1   
 30  14  37  1   
 31  15  17  1   
 32  16  18  2   
 33  16  19  am  
 34  17  38  1   
 35  17  39  1   
 36  17  40  1   
 37  19  20  1   
 38  19  41  1   
 39  20  21  1   
 40  20  22  1   
 41  20  42  1   
 42  21  23  1   
 43  21  43  1   
 44  21  44  1   
 45  22  45  1   
 46  22  46  1   
 47  22  47  1   
 48  23  24  1   
 49  24  48  1   
 50  24  49  1   
 51  24  50  1   
@<TRIPOS>SUBSTRUCTURE
  1 ****  11 GROUP 4 **** **** 0

# MOE 2024.06 (io_trps.svl 2023.06)
