@<TRIPOS>MOLECULE
4-Chloro-3-(morpholine-4-sulfonyl)-N-pyridin-4-ylmethyl-benzamide
44 46 1 0 0 
SMALL
USER_CHARGES


@<TRIPOS>ATOM
  1 CL       0.6050     0.0340     2.6080 Cl    1 <1>  -0.1770 
  2 C        1.8000    -0.7950     1.6440 C.ar  1 <1>   0.1770 
  3 C        1.5670    -2.0430     1.0810 C.ar  1 <1>  -0.0090 
  4 C        2.9960    -0.1280     1.4540 C.ar  1 <1>  -0.1500 
  5 S        0.0150    -2.9590     1.2780 S.o2  1 <1>   1.4470 
  6 C        2.5830    -2.5810     0.2990 C.ar  1 <1>  -0.1500 
  7 C        3.9880    -0.6960     0.6780 C.ar  1 <1>  -0.1500 
  8 O        0.3080    -4.3630     1.0890 O.2   1 <1>  -0.6500 
  9 O       -0.7310    -2.5770     2.4550 O.2   1 <1>  -0.6500 
 10 N       -0.8880    -2.4730    -0.0720 N.am  1 <1>  -0.8490 
 11 C        3.8030    -1.9420     0.0790 C.ar  1 <1>   0.0860 
 12 C       -1.5130    -1.1490     0.0950 C.3   1 <1>   0.1960 
 13 C       -1.9280    -3.4580    -0.4100 C.3   1 <1>   0.1960 
 14 C        4.8250    -2.5560    -0.7500 C.2   1 <1>   0.5440 
 15 C       -2.3330    -0.7600    -1.1480 C.3   1 <1>   0.1200 
 16 C       -2.7440    -3.0120    -1.6370 C.3   1 <1>   0.1200 
 17 O        4.5210    -3.3110    -1.6520 O.2   1 <1>  -0.5700 
 18 N        6.1480    -2.3120    -0.5370 N.am  1 <1>  -0.7300 
 19 O       -3.2900    -1.7400    -1.4320 O.3   1 <1>  -0.5600 
 20 C        7.2320    -2.9070    -1.3320 C.3   1 <1>   0.2840 
 21 C        8.5390    -2.2960    -0.8640 C.ar  1 <1>  -0.1430 
 22 C        9.3110    -2.8860     0.1160 C.ar  1 <1>  -0.1500 
 23 C        9.0170    -1.1120    -1.3900 C.ar  1 <1>  -0.1500 
 24 C       10.4920    -2.2800     0.5130 C.ar  1 <1>   0.1600 
 25 C       10.2120    -0.5900    -0.9230 C.ar  1 <1>   0.1600 
 26 N       10.9590    -1.1450     0.0180 N.ar  1 <1>  -0.6200 
 27 H        3.1430     0.8370     1.9090 H     1 <1>   0.1500 
 28 H        2.4260    -3.5430    -0.1660 H     1 <1>   0.1500 
 29 H        4.9100    -0.1610     0.5280 H     1 <1>   0.1500 
 30 H       -0.7530    -0.4050     0.2490 H     1 <1>   0.0800 
 31 H       -2.1640    -1.1470     0.9540 H     1 <1>   0.0800 
 32 H       -2.5920    -3.5970     0.4270 H     1 <1>   0.0800 
 33 H       -1.4710    -4.4080    -0.6320 H     1 <1>   0.0800 
 34 H       -1.6910    -0.6480    -2.0050 H     1 <1>   0.0800 
 35 H       -2.8520     0.1660    -0.9780 H     1 <1>   0.0800 
 36 H       -3.5560    -3.6940    -1.8130 H     1 <1>   0.0800 
 37 H       -2.1190    -2.9810    -2.5130 H     1 <1>   0.0800 
 38 H        6.4630    -1.7740     0.2700 H     1 <1>   0.3700 
 39 H        7.0680    -2.7020    -2.3770 H     1 <1>   0.0800 
 40 H        7.2380    -3.9740    -1.1910 H     1 <1>   0.0800 
 41 H        9.0070    -3.8090     0.5750 H     1 <1>   0.1500 
 42 H        8.4720    -0.5920    -2.1570 H     1 <1>   0.1500 
 43 H       11.0830    -2.7530     1.2780 H     1 <1>   0.1500 
 44 H       10.5710     0.3330    -1.3440 H     1 <1>   0.1500 
@<TRIPOS>BOND
  1   1   2  1   
  2   2   3  ar  
  3   2   4  ar  
  4   3   5  1   
  5   3   6  ar  
  6   4   7  ar  
  7   4  27  1   
  8   5   8  2   
  9   5   9  2   
 10   5  10  am  
 11   6  11  ar  
 12   6  28  1   
 13   7  11  ar  
 14   7  29  1   
 15  10  12  1   
 16  10  13  1   
 17  11  14  1   
 18  12  15  1   
 19  12  30  1   
 20  12  31  1   
 21  13  16  1   
 22  13  32  1   
 23  13  33  1   
 24  14  17  2   
 25  14  18  am  
 26  15  19  1   
 27  15  34  1   
 28  15  35  1   
 29  16  19  1   
 30  16  36  1   
 31  16  37  1   
 32  18  20  1   
 33  18  38  1   
 34  20  21  1   
 35  20  39  1   
 36  20  40  1   
 37  21  22  ar  
 38  21  23  ar  
 39  22  24  ar  
 40  22  41  1   
 41  23  25  ar  
 42  23  42  1   
 43  24  26  ar  
 44  24  43  1   
 45  25  26  ar  
 46  25  44  1   
@<TRIPOS>SUBSTRUCTURE
  1 ****  11 GROUP 4 **** **** 0

# MOE 2024.06 (io_trps.svl 2023.06)
