@<TRIPOS>MOLECULE
1-(4-Ethoxy-3-methyl-benzenesulfonyl)-piperidine-4-carboxylic acid (furan-2-ylme
54 56 1 0 0 
SMALL
USER_CHARGES


@<TRIPOS>ATOM
  1 S        0.1130     0.5470    -2.5630 S.o2  1 <1>   1.4470 
  2 O        0.7350    -0.3600    -3.5030 O.2   1 <1>  -0.6500 
  3 O       -0.6390     1.6800    -3.0590 O.2   1 <1>  -0.6500 
  4 N        1.3510     1.1840    -1.5940 N.am  1 <1>  -0.8490 
  5 C       -0.8770    -0.4070    -1.3790 C.ar  1 <1>  -0.0090 
  6 C        0.8510     2.2080    -0.6720 C.3   1 <1>   0.1960 
  7 C        2.4490     1.7040    -2.4120 C.3   1 <1>   0.1960 
  8 C       -2.1920    -0.0600    -1.0890 C.ar  1 <1>  -0.1500 
  9 C       -0.3340    -1.5000    -0.7160 C.ar  1 <1>  -0.1500 
 10 C        1.9580     2.6130     0.3020 C.3   1 <1>  -0.1600 
 11 C        3.6240     2.1020    -1.5170 C.3   1 <1>  -0.1600 
 12 C       -2.9460    -0.7700    -0.1680 C.ar  1 <1>  -0.1430 
 13 C       -1.0710    -2.2220     0.2050 C.ar  1 <1>  -0.1500 
 14 C        3.1970     3.1270    -0.4510 C.3   1 <1>  -0.0190 
 15 C       -2.3850    -1.8610     0.4880 C.ar  1 <1>   0.0820 
 16 C       -4.3820    -0.3530     0.1160 C.3   1 <1>  -0.0970 
 17 C        4.3420     3.4690     0.4970 C.2   1 <1>   0.5690 
 18 O       -3.1580    -2.5260     1.3830 O.3   1 <1>  -0.3630 
 19 O        4.7640     4.5980     0.5260 O.2   1 <1>  -0.5700 
 20 N        4.8610     2.4970     1.2830 N.am  1 <1>  -0.7300 
 21 C       -2.6970    -3.6690     2.0650 C.3   1 <1>   0.1200 
 22 C        6.0220     2.6590     2.1720 C.3   1 <1>   0.3200 
 23 C       -3.8230    -4.1690     2.9650 C.3   1 <1>  -0.2400 
 24 C        6.8100     1.3630     2.1670 C.2   1 <1>  -0.0400 
 25 O        6.2210     0.2530     2.5720 O.3   1 <1>  -0.2800 
 26 C        8.0850     1.1120     1.7960 C.2   1 <1>  -0.1500 
 27 C        7.1000    -0.7240     2.4730 C.2   1 <1>  -0.0100 
 28 C        8.2760    -0.2600     1.9980 C.2   1 <1>  -0.1500 
 29 H        0.0190     1.8200    -0.1080 H     1 <1>   0.0800 
 30 H        0.5110     3.0700    -1.2240 H     1 <1>   0.0800 
 31 H        2.1100     2.5510    -2.9870 H     1 <1>   0.0800 
 32 H        2.7850     0.9450    -3.1010 H     1 <1>   0.0800 
 33 H       -2.6290     0.7830    -1.5980 H     1 <1>   0.1500 
 34 H        0.6830    -1.7850    -0.9270 H     1 <1>   0.1500 
 35 H        2.2100     1.7600     0.9060 H     1 <1>   0.0800 
 36 H        1.5910     3.3840     0.9580 H     1 <1>   0.0800 
 37 H        4.4080     2.5200    -2.1230 H     1 <1>   0.0800 
 38 H        4.0100     1.2140    -1.0490 H     1 <1>   0.0800 
 39 H       -0.6050    -3.0590     0.6900 H     1 <1>   0.1500 
 40 H        2.9220     4.0350    -0.9590 H     1 <1>   0.0800 
 41 H       -4.6660     0.5020    -0.4700 H     1 <1>   0.0800 
 42 H       -4.4910    -0.1090     1.1570 H     1 <1>   0.0800 
 43 H       -5.0480    -1.1650    -0.1170 H     1 <1>   0.0800 
 44 H        4.5190     1.5360     1.2280 H     1 <1>   0.3700 
 45 H       -1.8370    -3.3930     2.6500 H     1 <1>   0.0800 
 46 H       -2.4320    -4.4160     1.3360 H     1 <1>   0.0800 
 47 H        5.6820     2.8730     3.1700 H     1 <1>   0.0800 
 48 H        6.6390     3.4730     1.8320 H     1 <1>   0.0800 
 49 H       -4.0920    -3.4090     3.6770 H     1 <1>   0.0800 
 50 H       -3.5020    -5.0430     3.5000 H     1 <1>   0.0800 
 51 H       -4.6830    -4.4250     2.3720 H     1 <1>   0.0800 
 52 H        8.8250     1.7960     1.4180 H     1 <1>   0.1500 
 53 H        6.8080    -1.7190     2.7620 H     1 <1>   0.1500 
 54 H        9.1850    -0.8010     1.8030 H     1 <1>   0.1500 
@<TRIPOS>BOND
  1   1   2  2   
  2   1   3  2   
  3   1   4  am  
  4   1   5  1   
  5   4   6  1   
  6   4   7  1   
  7   5   8  ar  
  8   5   9  ar  
  9   6  10  1   
 10   6  29  1   
 11   6  30  1   
 12   7  11  1   
 13   7  31  1   
 14   7  32  1   
 15   8  12  ar  
 16   8  33  1   
 17   9  13  ar  
 18   9  34  1   
 19  10  14  1   
 20  10  35  1   
 21  10  36  1   
 22  11  14  1   
 23  11  37  1   
 24  11  38  1   
 25  12  15  ar  
 26  12  16  1   
 27  13  15  ar  
 28  13  39  1   
 29  14  17  1   
 30  14  40  1   
 31  15  18  1   
 32  16  41  1   
 33  16  42  1   
 34  16  43  1   
 35  17  19  2   
 36  17  20  am  
 37  18  21  1   
 38  20  22  1   
 39  20  44  1   
 40  21  23  1   
 41  21  45  1   
 42  21  46  1   
 43  22  24  1   
 44  22  47  1   
 45  22  48  1   
 46  23  49  1   
 47  23  50  1   
 48  23  51  1   
 49  24  25  1   
 50  24  26  2   
 51  25  27  1   
 52  26  28  1   
 53  26  52  1   
 54  27  28  2   
 55  27  53  1   
 56  28  54  1   
@<TRIPOS>SUBSTRUCTURE
  1 ****   4 GROUP 4 **** **** 0

# MOE 2024.06 (io_trps.svl 2023.06)
