@<TRIPOS>MOLECULE
8-Allyl-3-(3-hydroxy-propyl)-1,7-dimethyl-1H,8H-imidazo[2,1-f]purine-2,4-dione
43 45 1 0 0 
SMALL
USER_CHARGES


@<TRIPOS>ATOM
  1 O        1.1670    -0.2700    -1.0850 O.2   1 <1>  -0.5760 
  2 C        2.0580     0.5150    -0.8340 C.2   1 <1>   0.6850 
  3 N        1.7850     1.8780    -0.7440 N.am  1 <1>  -0.4270 
  4 N        3.3530     0.0470    -0.6380 N.am  1 <1>  -0.4430 
  5 C        2.7920     2.7980    -0.4820 C.2   1 <1>   0.6990 
  6 C        0.3800     2.3550    -0.9120 C.3   1 <1>   0.1310 
  7 C        4.3490     0.9690    -0.3850 C.2   1 <1>   0.4190 
  8 C        3.6550    -1.4130    -0.7220 C.3   1 <1>   0.0510 
  9 O        2.5550     3.9920    -0.4120 O.2   1 <1>  -0.5760 
 10 C        4.1160     2.3010    -0.3020 C.2   1 <1>   0.2690 
 11 C       -0.3510     2.3200     0.4330 C.3   1 <1>  -0.1690 
 12 N        5.6800     0.7340    -0.1890 N.pl3 1 <1>  -0.7050 
 13 N        5.3570     2.9030    -0.0440 N.pl3 1 <1>  -0.6340 
 14 C       -1.7910     2.7980     0.2710 C.3   1 <1>   0.1110 
 15 C        6.2520     1.9260     0.0100 C.cat 1 <1>   1.0680 
 16 C        6.0380     4.0850     0.1770 C.2   1 <1>   0.2210 
 17 O       -2.3960     2.7680     1.5110 O.3   1 <1>  -0.6850 
 18 N        7.4810     2.3950     0.2500 N.pl3 1 <1>  -0.5730 
 19 C        7.3410     3.7710     0.3590 C.2   1 <1>   0.1560 
 20 C        8.7110     1.5920     0.4280 C.3   1 <1>   0.2980 
 21 C        8.5150     4.6920     0.6410 C.3   1 <1>  -0.1110 
 22 C        8.6420     0.3620    -0.4580 C.2   1 <1>  -0.2960 
 23 C        8.4780    -0.8940    -0.0290 C.2   1 <1>  -0.3080 
 24 H       -0.1340     1.7300    -1.6230 H     1 <1>   0.0710 
 25 H        0.3740     3.3580    -1.3040 H     1 <1>   0.0710 
 26 H        2.7840    -1.9920    -0.4640 H     1 <1>   0.0710 
 27 H        4.4440    -1.6760    -0.0410 H     1 <1>   0.0710 
 28 H        3.9480    -1.6640    -1.7270 H     1 <1>   0.0710 
 29 H        0.1540     2.9670     1.1290 H     1 <1>   0.0710 
 30 H       -0.3530     1.3120     0.8090 H     1 <1>   0.0710 
 31 H        6.2170    -0.1330    -0.2440 H     1 <1>   0.4440 
 32 H       -2.3490     2.1600    -0.3940 H     1 <1>   0.0710 
 33 H       -1.8260     3.8130    -0.0870 H     1 <1>   0.0710 
 34 H        5.5440     5.0450     0.1880 H     1 <1>   0.1410 
 35 H       -2.4170     1.8560     1.8590 H     1 <1>   0.3930 
 36 H        8.7950     1.3010     1.4620 H     1 <1>   0.0710 
 37 H        9.5780     2.1740     0.1670 H     1 <1>   0.0710 
 38 H        8.9790     4.4290     1.5750 H     1 <1>   0.0710 
 39 H        8.1830     5.7130     0.7010 H     1 <1>   0.0710 
 40 H        9.2440     4.6170    -0.1460 H     1 <1>   0.0710 
 41 H        8.7540     0.6030    -1.5040 H     1 <1>   0.1410 
 42 H        8.4490    -1.7520    -0.6830 H     1 <1>   0.1410 
 43 H        8.3790    -1.1840     1.0050 H     1 <1>   0.1410 
@<TRIPOS>BOND
  1   1   2  2   
  2   2   3  am  
  3   2   4  am  
  4   3   5  am  
  5   3   6  1   
  6   4   7  1   
  7   4   8  1   
  8   5   9  2   
  9   5  10  1   
 10   6  11  1   
 11   6  24  1   
 12   6  25  1   
 13   7  10  2   
 14   7  12  1   
 15   8  26  1   
 16   8  27  1   
 17   8  28  1   
 18  10  13  1   
 19  11  14  1   
 20  11  29  1   
 21  11  30  1   
 22  12  15  ar  
 23  12  31  1   
 24  13  15  ar  
 25  13  16  1   
 26  14  17  1   
 27  14  32  1   
 28  14  33  1   
 29  15  18  ar  
 30  16  19  2   
 31  16  34  1   
 32  17  35  1   
 33  18  19  1   
 34  18  20  1   
 35  19  21  1   
 36  20  22  1   
 37  20  36  1   
 38  20  37  1   
 39  21  38  1   
 40  21  39  1   
 41  21  40  1   
 42  22  23  2   
 43  22  41  1   
 44  23  42  1   
 45  23  43  1   
@<TRIPOS>SUBSTRUCTURE
  1 ****  10 GROUP 4 **** **** 0

# MOE 2024.06 (io_trps.svl 2023.06)
