@<TRIPOS>MOLECULE
1-(3-Chloro-4-ethoxy-benzenesulfonyl)-piperidine-4-carboxylic acid (pyridin-4-yl
53 55 1 0 0 
SMALL
USER_CHARGES


@<TRIPOS>ATOM
  1 CL      -1.1770     0.7120    -1.0280 Cl    1 <1>  -0.1770 
  2 C       -0.2560     2.1230    -0.5550 C.ar  1 <1>   0.1770 
  3 C       -0.5460     2.8100     0.6190 C.ar  1 <1>   0.0820 
  4 C        0.7800     2.5290    -1.3760 C.ar  1 <1>  -0.1500 
  5 O       -1.5480     2.4440     1.4500 O.3   1 <1>  -0.3630 
  6 C        0.2350     3.8980     0.9690 C.ar  1 <1>  -0.1500 
  7 C        1.5650     3.6270    -1.0390 C.ar  1 <1>  -0.0090 
  8 C       -2.8770     2.6730     1.0300 C.3   1 <1>   0.1200 
  9 C        1.2730     4.3000     0.1440 C.ar  1 <1>  -0.1500 
 10 S        2.9240     4.1710    -2.1100 S.o2  1 <1>   1.4470 
 11 C       -3.2520     4.1260     1.3230 C.3   1 <1>  -0.2400 
 12 O        3.3160     3.0980    -3.0000 O.2   1 <1>  -0.6500 
 13 O        2.5950     5.4650    -2.6630 O.2   1 <1>  -0.6500 
 14 N        4.2090     4.3940    -1.0260 N.am  1 <1>  -0.8490 
 15 C        5.2710     5.2110    -1.6190 C.3   1 <1>   0.1960 
 16 C        4.7320     3.1190    -0.5220 C.3   1 <1>   0.1960 
 17 C        6.3410     5.5310    -0.5710 C.3   1 <1>  -0.1600 
 18 C        5.7700     3.3730     0.5720 C.3   1 <1>  -0.1600 
 19 C        6.9230     4.2530     0.0530 C.3   1 <1>  -0.0190 
 20 C        7.9460     4.5920     1.1360 C.2   1 <1>   0.5690 
 21 O        7.5980     4.7060     2.2860 O.2   1 <1>  -0.5700 
 22 N        9.2350     4.7850     0.7630 N.am  1 <1>  -0.7300 
 23 C       10.3040     5.2570     1.6620 C.3   1 <1>   0.2840 
 24 C       10.8580     6.5470     1.0880 C.ar  1 <1>  -0.1430 
 25 C       10.1230     7.7150     1.1180 C.ar  1 <1>  -0.1500 
 26 C       12.1080     6.6260     0.5070 C.ar  1 <1>  -0.1500 
 27 C       10.6560     8.8730     0.5800 C.ar  1 <1>   0.1600 
 28 C       12.5480     7.8370    -0.0030 C.ar  1 <1>   0.1600 
 29 N       11.8510     8.9610     0.0180 N.ar  1 <1>  -0.6200 
 30 H        0.9780     1.9810    -2.2810 H     1 <1>   0.1500 
 31 H        0.0260     4.4250     1.8840 H     1 <1>   0.1500 
 32 H       -3.5100     2.0030     1.5860 H     1 <1>   0.0800 
 33 H       -2.9670     2.4530    -0.0190 H     1 <1>   0.0800 
 34 H        1.8720     5.1520     0.4230 H     1 <1>   0.1500 
 35 H       -3.1290     4.3350     2.3700 H     1 <1>   0.0800 
 36 H       -4.2800     4.2930     1.0580 H     1 <1>   0.0800 
 37 H       -2.6400     4.7950     0.7450 H     1 <1>   0.0800 
 38 H        4.8580     6.1400    -1.9790 H     1 <1>   0.0800 
 39 H        5.7080     4.6910    -2.4560 H     1 <1>   0.0800 
 40 H        5.1760     2.5570    -1.3270 H     1 <1>   0.0800 
 41 H        3.9280     2.5330    -0.1070 H     1 <1>   0.0800 
 42 H        5.8990     6.1410     0.1980 H     1 <1>   0.0800 
 43 H        7.1260     6.1040    -1.0310 H     1 <1>   0.0800 
 44 H        6.1610     2.4340     0.9220 H     1 <1>   0.0800 
 45 H        5.2830     3.8550     1.4030 H     1 <1>   0.0800 
 46 H        7.4330     3.7020    -0.7170 H     1 <1>   0.0800 
 47 H        9.4910     4.7730    -0.2240 H     1 <1>   0.3700 
 48 H       11.0750     4.5080     1.7270 H     1 <1>   0.0800 
 49 H        9.9180     5.4320     2.6520 H     1 <1>   0.0800 
 50 H        9.1400     7.7280     1.5560 H     1 <1>   0.1500 
 51 H       12.7450     5.7630     0.4450 H     1 <1>   0.1500 
 52 H       10.0680     9.7750     0.6120 H     1 <1>   0.1500 
 53 H       13.5260     7.8830    -0.4520 H     1 <1>   0.1500 
@<TRIPOS>BOND
  1   1   2  1   
  2   2   3  ar  
  3   2   4  ar  
  4   3   5  1   
  5   3   6  ar  
  6   4   7  ar  
  7   4  30  1   
  8   5   8  1   
  9   6   9  ar  
 10   6  31  1   
 11   7   9  ar  
 12   7  10  1   
 13   8  11  1   
 14   8  32  1   
 15   8  33  1   
 16   9  34  1   
 17  10  12  2   
 18  10  13  2   
 19  10  14  am  
 20  11  35  1   
 21  11  36  1   
 22  11  37  1   
 23  14  15  1   
 24  14  16  1   
 25  15  17  1   
 26  15  38  1   
 27  15  39  1   
 28  16  18  1   
 29  16  40  1   
 30  16  41  1   
 31  17  19  1   
 32  17  42  1   
 33  17  43  1   
 34  18  19  1   
 35  18  44  1   
 36  18  45  1   
 37  19  20  1   
 38  19  46  1   
 39  20  21  2   
 40  20  22  am  
 41  22  23  1   
 42  22  47  1   
 43  23  24  1   
 44  23  48  1   
 45  23  49  1   
 46  24  25  ar  
 47  24  26  ar  
 48  25  27  ar  
 49  25  50  1   
 50  26  28  ar  
 51  26  51  1   
 52  27  29  ar  
 53  27  52  1   
 54  28  29  ar  
 55  28  53  1   
@<TRIPOS>SUBSTRUCTURE
  1 ****  14 GROUP 4 **** **** 0

# MOE 2024.06 (io_trps.svl 2023.06)
