@<TRIPOS>MOLECULE
2-(Tetrahydro-pyran-2-ylmethoxy)-phenylamine
32 33 1 0 0 
SMALL
USER_CHARGES


@<TRIPOS>ATOM
  1 O       -0.2620     0.4420    -0.6220 O.3   1 <1>  -0.5600 
  2 C       -1.2440     0.9790     0.2180 C.3   1 <1>   0.2000 
  3 C        0.0920    -0.8770    -0.3420 C.3   1 <1>   0.1200 
  4 C       -2.5480     0.1900     0.0160 C.3   1 <1>  -0.1600 
  5 C       -1.4260     2.4680    -0.1030 C.3   1 <1>   0.1200 
  6 C       -1.1210    -1.7880    -0.5640 C.3   1 <1>  -0.1600 
  7 C       -2.3240    -1.3080     0.2570 C.3   1 <1>  -0.1600 
  8 O       -0.2480     3.1800     0.2200 O.3   1 <1>  -0.3630 
  9 C       -0.1720     4.5360     0.0530 C.ar  1 <1>   0.0820 
 10 C        1.0370     5.1510     0.3980 C.ar  1 <1>   0.1000 
 11 C       -1.2200     5.3040    -0.4420 C.ar  1 <1>  -0.1500 
 12 N        2.1030     4.4010     0.8800 N.pl3 1 <1>  -0.9000 
 13 C        1.1700     6.5230     0.2460 C.ar  1 <1>  -0.1500 
 14 C       -1.0700     6.6740    -0.5900 C.ar  1 <1>  -0.1500 
 15 C        0.1230     7.2830    -0.2450 C.ar  1 <1>  -0.1500 
 16 H       -0.9100     0.8810     1.2370 H     1 <1>   0.0800 
 17 H        0.4430    -0.9300     0.6750 H     1 <1>   0.0800 
 18 H        0.8950    -1.1490    -1.0050 H     1 <1>   0.0800 
 19 H       -2.8990     0.3450    -0.9890 H     1 <1>   0.0800 
 20 H       -3.3010     0.5540     0.6910 H     1 <1>   0.0800 
 21 H       -2.2280     2.8730     0.4870 H     1 <1>   0.0800 
 22 H       -1.6330     2.5990    -1.1500 H     1 <1>   0.0800 
 23 H       -0.8690    -2.7970    -0.2900 H     1 <1>   0.0800 
 24 H       -1.3670    -1.7820    -1.6110 H     1 <1>   0.0800 
 25 H       -3.2040    -1.8650    -0.0140 H     1 <1>   0.0800 
 26 H       -2.1290    -1.4750     1.3030 H     1 <1>   0.0800 
 27 H       -2.1570     4.8620    -0.7200 H     1 <1>   0.1500 
 28 H        2.9900     4.5830     0.4070 H     1 <1>   0.4000 
 29 H        1.8780     3.3990     0.8340 H     1 <1>   0.4000 
 30 H        2.0970     6.9930     0.5200 H     1 <1>   0.1500 
 31 H       -1.8840     7.2660    -0.9730 H     1 <1>   0.1500 
 32 H        0.2390     8.3470    -0.3580 H     1 <1>   0.1500 
@<TRIPOS>BOND
  1   1   2  1   
  2   1   3  1   
  3   2   4  1   
  4   2   5  1   
  5   2  16  1   
  6   3   6  1   
  7   3  17  1   
  8   3  18  1   
  9   4   7  1   
 10   4  19  1   
 11   4  20  1   
 12   5   8  1   
 13   5  21  1   
 14   5  22  1   
 15   6   7  1   
 16   6  23  1   
 17   6  24  1   
 18   7  25  1   
 19   7  26  1   
 20   8   9  1   
 21   9  10  ar  
 22   9  11  ar  
 23  10  12  1   
 24  10  13  ar  
 25  11  14  ar  
 26  11  27  1   
 27  12  28  1   
 28  12  29  1   
 29  13  15  ar  
 30  13  30  1   
 31  14  15  ar  
 32  14  31  1   
 33  15  32  1   
@<TRIPOS>SUBSTRUCTURE
  1 ****   8 GROUP 4 **** **** 0

# MOE 2024.06 (io_trps.svl 2023.06)
