@<TRIPOS>MOLECULE
5-Oxo-1-(toluene-4-sulfonyl)-pyrrolidine-2-carboxylic acid adamantan-1-ylamide
57 61 1 0 0 
SMALL
USER_CHARGES


@<TRIPOS>ATOM
  1 S        0.6150     0.6550    -1.1240 S.o2  1 <1>   1.4470 
  2 O        1.8640     0.3910    -1.8070 O.2   1 <1>  -0.6500 
  3 O       -0.4160     1.3850    -1.8200 O.2   1 <1>  -0.6500 
  4 N        1.0600     1.6350     0.2130 N.am  1 <1>  -0.7300 
  5 C        0.0010    -0.8760    -0.3720 C.ar  1 <1>  -0.0090 
  6 C        0.1760     2.0570     1.1190 C.2   1 <1>   0.7450 
  7 C        2.2760     2.4720     0.1620 C.3   1 <1>   0.3370 
  8 C        0.8840    -1.8450     0.0900 C.ar  1 <1>  -0.1500 
  9 C       -1.3590    -1.1160    -0.2190 C.ar  1 <1>  -0.1500 
 10 O       -0.9120     1.5860     1.3190 O.2   1 <1>  -0.5700 
 11 C        0.7030     3.2480     1.8680 C.3   1 <1>  -0.0990 
 12 C        3.5110     1.7100     0.7020 C.2   1 <1>   0.5690 
 13 C        1.8700     3.7130     0.9860 C.3   1 <1>  -0.1600 
 14 C        0.4290    -3.0140     0.6740 C.ar  1 <1>  -0.1500 
 15 C       -1.8220    -2.2830     0.3640 C.ar  1 <1>  -0.1500 
 16 O        3.9820     2.0150     1.7730 O.2   1 <1>  -0.5700 
 17 N        4.0200     0.6980    -0.0530 N.am  1 <1>  -0.7300 
 18 C       -0.9290    -3.2390     0.8140 C.ar  1 <1>  -0.1430 
 19 C        5.1330    -0.2170     0.2420 C.3   1 <1>   0.3000 
 20 C       -1.4370    -4.5190     1.4530 C.3   1 <1>  -0.0970 
 21 C        5.2520    -1.1930    -0.9430 C.3   1 <1>  -0.1600 
 22 C        4.8580    -1.0220     1.5270 C.3   1 <1>  -0.1600 
 23 C        6.4570     0.5580     0.3840 C.3   1 <1>  -0.1600 
 24 C        6.4040    -2.1870    -0.7030 C.3   1 <1>  -0.0800 
 25 C        6.0120    -2.0110     1.7840 C.3   1 <1>  -0.0800 
 26 C        7.6160    -0.4250     0.6390 C.3   1 <1>  -0.0800 
 27 C        6.1280    -2.9770     0.5900 C.3   1 <1>  -0.1600 
 28 C        7.7210    -1.4030    -0.5470 C.3   1 <1>  -0.1600 
 29 C        7.3290    -1.2230     1.9270 C.3   1 <1>  -0.1600 
 30 H        2.4770     2.7680    -0.8530 H     1 <1>   0.0800 
 31 H        1.9430    -1.6850    -0.0100 H     1 <1>   0.1500 
 32 H       -2.0670    -0.3750    -0.5540 H     1 <1>   0.1500 
 33 H        1.0520     2.9250     2.8330 H     1 <1>   0.0800 
 34 H       -0.0530     4.0040     1.9770 H     1 <1>   0.0800 
 35 H        1.5230     4.4710     0.3060 H     1 <1>   0.0800 
 36 H        2.6810     4.1270     1.5600 H     1 <1>   0.0800 
 37 H        1.1370    -3.7480     1.0190 H     1 <1>   0.1500 
 38 H       -2.8820    -2.4390     0.4680 H     1 <1>   0.1500 
 39 H        3.5270     0.4610    -0.9260 H     1 <1>   0.3700 
 40 H       -0.7060    -4.9180     2.1330 H     1 <1>   0.0800 
 41 H       -1.6410    -5.2510     0.6920 H     1 <1>   0.0800 
 42 H       -2.3420    -4.3290     2.0030 H     1 <1>   0.0800 
 43 H        5.4390    -0.6450    -1.8500 H     1 <1>   0.0800 
 44 H        4.3320    -1.7380    -1.0630 H     1 <1>   0.0800 
 45 H        3.9340    -1.5610     1.4340 H     1 <1>   0.0800 
 46 H        4.7760    -0.3570     2.3680 H     1 <1>   0.0800 
 47 H        6.3930     1.2460     1.2080 H     1 <1>   0.0800 
 48 H        6.6490     1.1220    -0.5110 H     1 <1>   0.0800 
 49 H        6.4810    -2.8660    -1.5360 H     1 <1>   0.0800 
 50 H        5.8200    -2.5660     2.6870 H     1 <1>   0.0800 
 51 H        8.5390     0.1190     0.7460 H     1 <1>   0.0800 
 52 H        6.9250    -3.6780     0.7660 H     1 <1>   0.0800 
 53 H        5.2170    -3.5410     0.4870 H     1 <1>   0.0800 
 54 H        7.9320    -0.8590    -1.4510 H     1 <1>   0.0800 
 55 H        8.5350    -2.0880    -0.3820 H     1 <1>   0.0800 
 56 H        8.1410    -1.9020     2.1230 H     1 <1>   0.0800 
 57 H        7.2600    -0.5480     2.7630 H     1 <1>   0.0800 
@<TRIPOS>BOND
  1   1   2  2   
  2   1   3  2   
  3   1   4  am  
  4   1   5  1   
  5   4   6  am  
  6   4   7  1   
  7   5   8  ar  
  8   5   9  ar  
  9   6  10  2   
 10   6  11  1   
 11   7  12  1   
 12   7  13  1   
 13   7  30  1   
 14   8  14  ar  
 15   8  31  1   
 16   9  15  ar  
 17   9  32  1   
 18  11  13  1   
 19  11  33  1   
 20  11  34  1   
 21  12  16  2   
 22  12  17  am  
 23  13  35  1   
 24  13  36  1   
 25  14  18  ar  
 26  14  37  1   
 27  15  18  ar  
 28  15  38  1   
 29  17  19  1   
 30  17  39  1   
 31  18  20  1   
 32  19  21  1   
 33  19  22  1   
 34  19  23  1   
 35  20  40  1   
 36  20  41  1   
 37  20  42  1   
 38  21  24  1   
 39  21  43  1   
 40  21  44  1   
 41  22  25  1   
 42  22  45  1   
 43  22  46  1   
 44  23  26  1   
 45  23  47  1   
 46  23  48  1   
 47  24  27  1   
 48  24  28  1   
 49  24  49  1   
 50  25  27  1   
 51  25  29  1   
 52  25  50  1   
 53  26  28  1   
 54  26  29  1   
 55  26  51  1   
 56  27  52  1   
 57  27  53  1   
 58  28  54  1   
 59  28  55  1   
 60  29  56  1   
 61  29  57  1   
@<TRIPOS>SUBSTRUCTURE
  1 ****  17 GROUP 4 **** **** 0

# MOE 2024.06 (io_trps.svl 2023.06)
