@<TRIPOS>MOLECULE
1-(2-Fluoro-phenyl)-4-(piperidine-1-sulfonyl)-piperazine
44 46 1 0 0 
SMALL
USER_CHARGES


@<TRIPOS>ATOM
  1 S        0.4910     0.2050    -1.1880 S.o2  1 <1>   1.5760 
  2 O        0.8330    -0.8950    -2.0630 O.2   1 <1>  -0.6500 
  3 O        0.8010     1.5700    -1.5580 O.2   1 <1>  -0.6500 
  4 N        1.1280    -0.1010     0.3540 N.am  1 <1>  -0.8490 
  5 N       -1.1590     0.1130    -0.8410 N.am  1 <1>  -0.8490 
  6 C        1.9300    -1.3430     0.4390 C.3   1 <1>   0.1960 
  7 C        1.8950     1.0280     0.9240 C.3   1 <1>   0.1960 
  8 C       -1.6130     1.1620     0.0720 C.3   1 <1>   0.1960 
  9 C       -1.5810    -1.2220    -0.4170 C.3   1 <1>   0.1960 
 10 C        3.3220    -1.2260    -0.2220 C.3   1 <1>   0.2090 
 11 C        3.2840     1.2200     0.2730 C.3   1 <1>   0.2090 
 12 C       -3.1420     1.1590     0.1670 C.3   1 <1>  -0.1600 
 13 C       -3.1100    -1.2950    -0.3360 C.3   1 <1>  -0.1600 
 14 N        4.0670    -0.0510     0.3190 N.pl3 1 <1>  -0.8380 
 15 C       -3.6760    -0.2140     0.5920 C.3   1 <1>  -0.1600 
 16 C        5.4620    -0.0370     0.1650 C.ar  1 <1>   0.1000 
 17 C        6.3090    -0.8930     0.8790 C.ar  1 <1>   0.1900 
 18 C        6.0740     0.8420    -0.7270 C.ar  1 <1>  -0.1500 
 19 F        5.7960    -1.7490     1.7320 F     1 <1>  -0.1900 
 20 C        7.6830    -0.8850     0.7360 C.ar  1 <1>  -0.1500 
 21 C        7.4510     0.8640    -0.8830 C.ar  1 <1>  -0.1500 
 22 C        8.2590     0.0050    -0.1550 C.ar  1 <1>  -0.1500 
 23 H        1.3900    -2.1620    -0.0040 H     1 <1>   0.0800 
 24 H        2.0790    -1.5870     1.4760 H     1 <1>   0.0800 
 25 H        2.0460     0.8460     1.9740 H     1 <1>   0.0800 
 26 H        1.3290     1.9390     0.8390 H     1 <1>   0.0800 
 27 H       -1.2910     2.1240    -0.2910 H     1 <1>   0.0800 
 28 H       -1.1870     1.0070     1.0490 H     1 <1>   0.0800 
 29 H       -1.1540    -1.4530     0.5450 H     1 <1>   0.0800 
 30 H       -1.2360    -1.9550    -1.1270 H     1 <1>   0.0800 
 31 H        3.2210    -1.1250    -1.2890 H     1 <1>   0.0800 
 32 H        3.8790    -2.1260    -0.0310 H     1 <1>   0.0800 
 33 H        3.8210     1.9860     0.8040 H     1 <1>   0.0800 
 34 H        3.1720     1.5400    -0.7480 H     1 <1>   0.0800 
 35 H       -3.5460     1.4240    -0.7950 H     1 <1>   0.0800 
 36 H       -3.4580     1.9060     0.8730 H     1 <1>   0.0800 
 37 H       -3.4030    -2.2680     0.0170 H     1 <1>   0.0800 
 38 H       -3.5120    -1.1710    -1.3270 H     1 <1>   0.0800 
 39 H       -4.7520    -0.2200     0.5510 H     1 <1>   0.0800 
 40 H       -3.3760    -0.4180     1.6050 H     1 <1>   0.0800 
 41 H        5.4690     1.5090    -1.3110 H     1 <1>   0.1500 
 42 H        8.2870    -1.5620     1.3110 H     1 <1>   0.1500 
 43 H        7.8970     1.5540    -1.5790 H     1 <1>   0.1500 
 44 H        9.3270     0.0290    -0.2810 H     1 <1>   0.1500 
@<TRIPOS>BOND
  1   1   2  2   
  2   1   3  2   
  3   1   4  am  
  4   1   5  am  
  5   4   6  1   
  6   4   7  1   
  7   5   8  1   
  8   5   9  1   
  9   6  10  1   
 10   6  23  1   
 11   6  24  1   
 12   7  11  1   
 13   7  25  1   
 14   7  26  1   
 15   8  12  1   
 16   8  27  1   
 17   8  28  1   
 18   9  13  1   
 19   9  29  1   
 20   9  30  1   
 21  10  14  1   
 22  10  31  1   
 23  10  32  1   
 24  11  14  1   
 25  11  33  1   
 26  11  34  1   
 27  12  15  1   
 28  12  35  1   
 29  12  36  1   
 30  13  15  1   
 31  13  37  1   
 32  13  38  1   
 33  14  16  1   
 34  15  39  1   
 35  15  40  1   
 36  16  17  ar  
 37  16  18  ar  
 38  17  19  1   
 39  17  20  ar  
 40  18  21  ar  
 41  18  41  1   
 42  20  22  ar  
 43  20  42  1   
 44  21  22  ar  
 45  21  43  1   
 46  22  44  1   
@<TRIPOS>SUBSTRUCTURE
  1 ****   4 GROUP 4 **** **** 0

# MOE 2024.06 (io_trps.svl 2023.06)
