@<TRIPOS>MOLECULE
1-[3-(4-Methoxy-phenyl)-[1,2,4]oxadiazol-5-ylmethyl]-4-methyl-piperidine
43 45 1 0 0 
SMALL
USER_CHARGES


@<TRIPOS>ATOM
  1 O       -0.6840    -1.7460     2.2090 O.3   1 <1>  -0.0190 
  2 N       -1.9290    -1.4320     2.0500 N.2   1 <1>  -0.4100 
  3 C       -0.3140    -2.1660     1.0320 C.2   1 <1>   0.2980 
  4 C       -2.2540    -1.6740     0.8280 C.2   1 <1>   0.4620 
  5 N       -1.2100    -2.1470     0.1340 N.2   1 <1>  -0.5650 
  6 C        1.1360    -2.5910     0.8430 C.3   1 <1>   0.5230 
  7 C       -3.5650    -1.4640     0.2370 C.ar  1 <1>   0.0540 
  8 N        2.0530    -1.4140     0.6400 N.4   1 <1>  -0.9590 
  9 C       -4.6030    -0.8810     0.9670 C.ar  1 <1>  -0.1500 
 10 C       -3.8460    -1.8330    -1.0820 C.ar  1 <1>  -0.1500 
 11 C        1.6490    -0.6160    -0.5610 C.3   1 <1>   0.3430 
 12 C        3.4810    -1.8390     0.5680 C.3   1 <1>   0.3430 
 13 C       -5.8510    -0.6740     0.4110 C.ar  1 <1>  -0.1500 
 14 C       -5.0920    -1.6290    -1.6460 C.ar  1 <1>  -0.1500 
 15 C        2.5180     0.6380    -0.6590 C.3   1 <1>  -0.1600 
 16 C        4.3800    -0.6050     0.4910 C.3   1 <1>  -0.1600 
 17 C       -6.1080    -1.0430    -0.8980 C.ar  1 <1>   0.0830 
 18 C        4.0130     0.2920    -0.7000 C.3   1 <1>  -0.0800 
 19 O       -7.3560    -0.8060    -1.3700 O.3   1 <1>  -0.3630 
 20 C        4.8620     1.5670    -0.6970 C.3   1 <1>  -0.2400 
 21 C       -7.7220    -1.1490    -2.6870 C.3   1 <1>   0.0400 
 22 H        1.1870    -3.2390    -0.0170 H     1 <1>   0.0800 
 23 H        1.4430    -3.1550     1.7070 H     1 <1>   0.0800 
 24 H        1.9540    -0.7920     1.4540 H     1 <1>   0.4500 
 25 H       -4.4340    -0.5840     1.9880 H     1 <1>   0.1500 
 26 H       -3.0780    -2.2900    -1.6790 H     1 <1>   0.1500 
 27 H        0.6130    -0.3240    -0.4880 H     1 <1>   0.0800 
 28 H        1.7710    -1.2080    -1.4540 H     1 <1>   0.0800 
 29 H        3.6380    -2.4500    -0.3070 H     1 <1>   0.0800 
 30 H        3.7430    -2.4170     1.4400 H     1 <1>   0.0800 
 31 H       -6.6390    -0.2230     0.9880 H     1 <1>   0.1500 
 32 H       -5.2560    -1.9300    -2.6630 H     1 <1>   0.1500 
 33 H        2.3050     1.2830     0.1760 H     1 <1>   0.0800 
 34 H        2.2510     1.1740    -1.5540 H     1 <1>   0.0800 
 35 H        5.4030    -0.9270     0.3920 H     1 <1>   0.0800 
 36 H        4.3070    -0.0520     1.4120 H     1 <1>   0.0800 
 37 H        4.2190    -0.2440    -1.6130 H     1 <1>   0.0800 
 38 H        4.6940     2.1430     0.1970 H     1 <1>   0.0800 
 39 H        4.6200     2.1810    -1.5470 H     1 <1>   0.0800 
 40 H        5.9090     1.3220    -0.7510 H     1 <1>   0.0800 
 41 H       -8.7500    -0.8700    -2.8310 H     1 <1>   0.0800 
 42 H       -7.6100    -2.2110    -2.8150 H     1 <1>   0.0800 
 43 H       -7.0970    -0.6090    -3.3760 H     1 <1>   0.0800 
@<TRIPOS>BOND
  1   1   2  1   
  2   1   3  1   
  3   2   4  2   
  4   3   5  2   
  5   3   6  1   
  6   4   5  1   
  7   4   7  1   
  8   6   8  1   
  9   6  22  1   
 10   6  23  1   
 11   7   9  ar  
 12   7  10  ar  
 13   8  11  1   
 14   8  12  1   
 15   8  24  1   
 16   9  13  ar  
 17   9  25  1   
 18  10  14  ar  
 19  10  26  1   
 20  11  15  1   
 21  11  27  1   
 22  11  28  1   
 23  12  16  1   
 24  12  29  1   
 25  12  30  1   
 26  13  17  ar  
 27  13  31  1   
 28  14  17  ar  
 29  14  32  1   
 30  15  18  1   
 31  15  33  1   
 32  15  34  1   
 33  16  18  1   
 34  16  35  1   
 35  16  36  1   
 36  17  19  1   
 37  18  20  1   
 38  18  37  1   
 39  19  21  1   
 40  20  38  1   
 41  20  39  1   
 42  20  40  1   
 43  21  41  1   
 44  21  42  1   
 45  21  43  1   
@<TRIPOS>SUBSTRUCTURE
  1 ****   5 GROUP 4 **** **** 0

# MOE 2024.06 (io_trps.svl 2023.06)
