@<TRIPOS>MOLECULE
1-Methanesulfonyl-piperidine-3-carboxylic acid (4-methoxy-phenyl)-amide
41 42 1 0 0 
SMALL
USER_CHARGES


@<TRIPOS>ATOM
  1 S        0.1020    -0.1110     1.0390 S.o2  1 <1>   1.3330 
  2 O        0.5080     0.8260     2.0600 O.2   1 <1>  -0.6500 
  3 O       -0.9510    -1.0660     1.2930 O.2   1 <1>  -0.6500 
  4 N        1.4790    -0.9700     0.5500 N.am  1 <1>  -0.8490 
  5 C       -0.3660     0.8310    -0.4010 C.3   1 <1>  -0.1350 
  6 C        2.6370    -0.1250     0.2330 C.3   1 <1>   0.1960 
  7 C        1.2250    -2.0120    -0.4480 C.3   1 <1>   0.1960 
  8 C        3.9070    -0.9780     0.1230 C.3   1 <1>  -0.0190 
  9 C        2.4560    -2.9140    -0.5880 C.3   1 <1>  -0.1600 
 10 C        5.0930    -0.0930    -0.2310 C.2   1 <1>   0.5690 
 11 C        3.7210    -2.1060    -0.9090 C.3   1 <1>  -0.1600 
 12 O        4.9570     0.7260    -1.1080 O.2   1 <1>  -0.5700 
 13 N        6.2600    -0.2860     0.4560 N.am  1 <1>  -0.5470 
 14 C        7.4980     0.3720     0.3680 C.ar  1 <1>   0.1170 
 15 C        7.6400     1.6600    -0.1400 C.ar  1 <1>  -0.1500 
 16 C        8.6350    -0.2840     0.8270 C.ar  1 <1>  -0.1500 
 17 C        8.8790     2.2740    -0.1970 C.ar  1 <1>  -0.1500 
 18 C        9.8760     0.3250     0.7740 C.ar  1 <1>  -0.1500 
 19 C       10.0090     1.6040     0.2630 C.ar  1 <1>   0.0820 
 20 O       11.2620     2.1290     0.2450 O.3   1 <1>  -0.3620 
 21 C       11.5020     3.4130    -0.2870 C.3   1 <1>   0.0400 
 22 H        0.4190     1.5050    -0.6820 H     1 <1>   0.0800 
 23 H       -1.2430     1.4080    -0.1830 H     1 <1>   0.0800 
 24 H       -0.5840     0.1800    -1.2230 H     1 <1>   0.0800 
 25 H        2.7790     0.6060     1.0130 H     1 <1>   0.0800 
 26 H        2.4670     0.3980    -0.6930 H     1 <1>   0.0800 
 27 H        0.9900    -1.5640    -1.3980 H     1 <1>   0.0800 
 28 H        0.3870    -2.6160    -0.1390 H     1 <1>   0.0800 
 29 H        4.0820    -1.4150     1.0900 H     1 <1>   0.0800 
 30 H        2.2800    -3.6360    -1.3650 H     1 <1>   0.0800 
 31 H        2.5920    -3.4530     0.3340 H     1 <1>   0.0800 
 32 H        4.5800    -2.7540    -0.9080 H     1 <1>   0.0800 
 33 H        3.6310    -1.6760    -1.8940 H     1 <1>   0.0800 
 34 H        6.2480    -1.0580     1.1190 H     1 <1>   0.3700 
 35 H        6.7790     2.1960    -0.4930 H     1 <1>   0.1500 
 36 H        8.5570    -1.2790     1.2250 H     1 <1>   0.1500 
 37 H        8.9400     3.2660    -0.5990 H     1 <1>   0.1500 
 38 H       10.7520    -0.1880     1.1270 H     1 <1>   0.1500 
 39 H       12.5550     3.6150    -0.2110 H     1 <1>   0.0800 
 40 H       10.9480     4.1370     0.2850 H     1 <1>   0.0800 
 41 H       11.2010     3.4250    -1.3200 H     1 <1>   0.0800 
@<TRIPOS>BOND
  1   1   2  2   
  2   1   3  2   
  3   1   4  am  
  4   1   5  1   
  5   4   6  1   
  6   4   7  1   
  7   5  22  1   
  8   5  23  1   
  9   5  24  1   
 10   6   8  1   
 11   6  25  1   
 12   6  26  1   
 13   7   9  1   
 14   7  27  1   
 15   7  28  1   
 16   8  10  1   
 17   8  11  1   
 18   8  29  1   
 19   9  11  1   
 20   9  30  1   
 21   9  31  1   
 22  10  12  2   
 23  10  13  am  
 24  11  32  1   
 25  11  33  1   
 26  13  14  1   
 27  13  34  1   
 28  14  15  ar  
 29  14  16  ar  
 30  15  17  ar  
 31  15  35  1   
 32  16  18  ar  
 33  16  36  1   
 34  17  19  ar  
 35  17  37  1   
 36  18  19  ar  
 37  18  38  1   
 38  19  20  1   
 39  20  21  1   
 40  21  39  1   
 41  21  40  1   
 42  21  41  1   
@<TRIPOS>SUBSTRUCTURE
  1 ****  10 GROUP 4 **** **** 0

# MOE 2024.06 (io_trps.svl 2023.06)
