@<TRIPOS>MOLECULE
1,7-Dimethyl-3-(3-phenyl-propyl)-8-(tetrahydro-furan-2-ylmethyl)-1H,8H-imidazo[2
59 63 1 0 0 
SMALL
USER_CHARGES


@<TRIPOS>ATOM
  1 O        1.7010    -0.1960    -2.1810 O.2   1 <1>  -0.5740 
  2 C        2.3300     0.6690    -1.6080 C.2   1 <1>   0.6870 
  3 N        1.7790     1.9360    -1.4280 N.am  1 <1>  -0.4250 
  4 N        3.6080     0.3920    -1.1380 N.am  1 <1>  -0.4410 
  5 C        2.4970     2.9530    -0.8140 C.2   1 <1>   0.7000 
  6 C        0.3770     2.1930    -1.8720 C.3   1 <1>   0.1340 
  7 C        4.3140     1.4080    -0.5260 C.2   1 <1>   0.4210 
  8 C        4.2040    -0.9670    -1.3030 C.3   1 <1>   0.0540 
  9 O        2.0210     4.0680    -0.6760 O.2   1 <1>  -0.5740 
 10 C        3.8140     2.6560    -0.3560 C.2   1 <1>   0.2720 
 11 C       -0.5950     1.8780    -0.7310 C.3   1 <1>  -0.1660 
 12 N        5.5800     1.3650    -0.0250 N.pl3 1 <1>  -0.7030 
 13 N        4.8270     3.4050     0.2650 N.pl3 1 <1>  -0.6320 
 14 C       -2.0500     2.0900    -1.1630 C.3   1 <1>  -0.0230 
 15 C        5.8580     2.5860     0.4300 C.cat 1 <1>   1.0690 
 16 C        5.2140     4.6380     0.7500 C.2   1 <1>   0.2230 
 17 C       -2.9880     1.7780    -0.0090 C.ar  1 <1>  -0.1500 
 18 N        6.9010     3.2070     0.9980 N.pl3 1 <1>  -0.5710 
 19 C        6.4840     4.5160     1.2010 C.2   1 <1>   0.1590 
 20 C       -3.4560     2.7930     0.8110 C.ar  1 <1>  -0.1560 
 21 C       -3.3790     0.4710     0.2360 C.ar  1 <1>  -0.1560 
 22 C        8.1990     2.5860     1.4150 C.3   1 <1>   0.1620 
 23 C        7.3710     5.5730     1.8330 C.3   1 <1>  -0.1080 
 24 C       -4.3070     2.5050     1.8640 C.ar  1 <1>  -0.1560 
 25 C       -4.2300     0.1820     1.2890 C.ar  1 <1>  -0.1560 
 26 C        8.9470     1.8830     0.2650 C.3   1 <1>   0.1940 
 27 C       -4.6950     1.1990     2.1040 C.ar  1 <1>  -0.1560 
 28 O        8.1990     0.8230    -0.2490 O.3   1 <1>  -0.5640 
 29 C       10.2540     1.2360     0.7010 C.3   1 <1>  -0.1660 
 30 C        9.0430    -0.0600    -0.9250 C.3   1 <1>   0.1140 
 31 C       10.4190     0.0900    -0.2830 C.3   1 <1>  -0.1660 
 32 H        0.1440     1.5820    -2.7280 H     1 <1>   0.0740 
 33 H        0.2680     3.2220    -2.1710 H     1 <1>   0.0740 
 34 H        3.4290    -1.7150    -1.3250 H     1 <1>   0.0740 
 35 H        4.8630    -1.1940    -0.4840 H     1 <1>   0.0740 
 36 H        4.7520    -1.0120    -2.2280 H     1 <1>   0.0740 
 37 H       -0.3870     2.5180     0.1100 H     1 <1>   0.0740 
 38 H       -0.4720     0.8540    -0.4250 H     1 <1>   0.0740 
 39 H        6.3450     0.6870    -0.1490 H     1 <1>   0.4460 
 40 H       -2.2840     1.4480    -1.9940 H     1 <1>   0.0740 
 41 H       -2.1950     3.1080    -1.4810 H     1 <1>   0.0740 
 42 H        4.5600     5.4970     0.7360 H     1 <1>   0.1440 
 43 H       -3.1590     3.8120     0.6350 H     1 <1>   0.1440 
 44 H       -3.0210    -0.3260    -0.3910 H     1 <1>   0.1440 
 45 H        8.0130     1.8740     2.2010 H     1 <1>   0.0740 
 46 H        8.8450     3.3450     1.8180 H     1 <1>   0.0740 
 47 H        7.6480     5.2800     2.8300 H     1 <1>   0.0740 
 48 H        6.8520     6.5140     1.8880 H     1 <1>   0.0740 
 49 H        8.2620     5.7100     1.2470 H     1 <1>   0.0740 
 50 H       -4.6670     3.2980     2.4960 H     1 <1>   0.1440 
 51 H       -4.5290    -0.8350     1.4730 H     1 <1>   0.1440 
 52 H        9.1370     2.5740    -0.5400 H     1 <1>   0.0740 
 53 H       -5.3560     0.9750     2.9220 H     1 <1>   0.1440 
 54 H       10.1660     0.8480     1.7010 H     1 <1>   0.0740 
 55 H       11.0770     1.9280     0.6630 H     1 <1>   0.0740 
 56 H        9.0690     0.2230    -1.9640 H     1 <1>   0.0740 
 57 H        8.6580    -1.0600    -0.8240 H     1 <1>   0.0740 
 58 H       10.7160    -0.8170     0.2140 H     1 <1>   0.0740 
 59 H       11.1490     0.3250    -1.0380 H     1 <1>   0.0740 
@<TRIPOS>BOND
  1   1   2  2   
  2   2   3  am  
  3   2   4  am  
  4   3   5  am  
  5   3   6  1   
  6   4   7  1   
  7   4   8  1   
  8   5   9  2   
  9   5  10  1   
 10   6  11  1   
 11   6  32  1   
 12   6  33  1   
 13   7  10  2   
 14   7  12  1   
 15   8  34  1   
 16   8  35  1   
 17   8  36  1   
 18  10  13  1   
 19  11  14  1   
 20  11  37  1   
 21  11  38  1   
 22  12  15  ar  
 23  12  39  1   
 24  13  15  ar  
 25  13  16  1   
 26  14  17  1   
 27  14  40  1   
 28  14  41  1   
 29  15  18  ar  
 30  16  19  2   
 31  16  42  1   
 32  17  20  ar  
 33  17  21  ar  
 34  18  19  1   
 35  18  22  1   
 36  19  23  1   
 37  20  24  ar  
 38  20  43  1   
 39  21  25  ar  
 40  21  44  1   
 41  22  26  1   
 42  22  45  1   
 43  22  46  1   
 44  23  47  1   
 45  23  48  1   
 46  23  49  1   
 47  24  27  ar  
 48  24  50  1   
 49  25  27  ar  
 50  25  51  1   
 51  26  28  1   
 52  26  29  1   
 53  26  52  1   
 54  27  53  1   
 55  28  30  1   
 56  29  31  1   
 57  29  54  1   
 58  29  55  1   
 59  30  31  1   
 60  30  56  1   
 61  30  57  1   
 62  31  58  1   
 63  31  59  1   
@<TRIPOS>SUBSTRUCTURE
  1 ****  10 GROUP 4 **** **** 0

# MOE 2024.06 (io_trps.svl 2023.06)
