@<TRIPOS>MOLECULE
1-(5-Chloro-2-ethoxy-benzenesulfonyl)-piperidine-4-carboxylic acid (2-methoxy-1-
54 55 1 0 0 
SMALL
USER_CHARGES


@<TRIPOS>ATOM
  1 CL       0.3430     1.1090     2.8080 Cl    1 <1>  -0.1770 
  2 C        0.3660     2.6880     2.0650 C.ar  1 <1>   0.1770 
  3 C        1.1140     2.8870     0.9200 C.ar  1 <1>  -0.1500 
  4 C       -0.3640     3.7120     2.6340 C.ar  1 <1>  -0.1500 
  5 C        1.1490     4.1320     0.3000 C.ar  1 <1>  -0.0090 
  6 C       -0.3350     4.9600     2.0400 C.ar  1 <1>  -0.1500 
  7 S        2.1440     4.3660    -1.2000 S.o2  1 <1>   1.4470 
  8 C        0.4130     5.1630     0.8860 C.ar  1 <1>   0.0830 
  9 O        2.3300     3.0640    -1.8050 O.2   1 <1>  -0.6500 
 10 O        1.6510     5.4300    -2.0490 O.2   1 <1>  -0.6500 
 11 N        3.6690     4.8550    -0.6340 N.am  1 <1>  -0.8490 
 12 O        0.4360     6.4030     0.3600 O.3   1 <1>  -0.3630 
 13 C        3.6490     6.2230    -0.1040 C.3   1 <1>   0.1960 
 14 C        4.6860     4.6970    -1.6790 C.3   1 <1>   0.1960 
 15 C       -0.7040     6.8120    -0.3590 C.3   1 <1>   0.1200 
 16 C        5.0100     6.5950     0.4890 C.3   1 <1>  -0.1600 
 17 C        6.0790     5.0220    -1.1340 C.3   1 <1>  -0.1600 
 18 C       -0.4090     8.1780    -0.9690 C.3   1 <1>  -0.2400 
 19 C        6.1320     6.4420    -0.5490 C.3   1 <1>  -0.0190 
 20 C        7.5000     6.7650     0.0510 C.2   1 <1>   0.5690 
 21 O        7.9510     6.0520     0.9140 O.2   1 <1>  -0.5700 
 22 N        8.1610     7.8620    -0.4100 N.am  1 <1>  -0.7300 
 23 C        9.4520     8.4160     0.0720 C.3   1 <1>   0.2200 
 24 C       10.5310     7.3330     0.2530 C.3   1 <1>   0.1200 
 25 C        9.1890     9.1970     1.3600 C.3   1 <1>  -0.2400 
 26 O       11.7770     7.9470     0.4100 O.3   1 <1>  -0.5600 
 27 C       12.8120     7.0510     0.6550 C.3   1 <1>   0.0400 
 28 H        1.6730     2.0640     0.5100 H     1 <1>   0.1500 
 29 H       -0.9370     3.5330     3.5270 H     1 <1>   0.1500 
 30 H       -0.8840     5.7780     2.4710 H     1 <1>   0.1500 
 31 H        2.9130     6.2990     0.6780 H     1 <1>   0.0800 
 32 H        3.3830     6.9190    -0.8840 H     1 <1>   0.0800 
 33 H        4.4530     5.3380    -2.5140 H     1 <1>   0.0800 
 34 H        4.6900     3.6780    -2.0310 H     1 <1>   0.0800 
 35 H       -1.5400     6.8640     0.3170 H     1 <1>   0.0800 
 36 H       -0.9010     6.0870    -1.1310 H     1 <1>   0.0800 
 37 H        5.2060     5.9570     1.3340 H     1 <1>   0.0800 
 38 H        4.9790     7.6090     0.8450 H     1 <1>   0.0800 
 39 H        6.8020     4.9270    -1.9240 H     1 <1>   0.0800 
 40 H        6.3290     4.3020    -0.3740 H     1 <1>   0.0800 
 41 H       -0.1880     8.8920    -0.1970 H     1 <1>   0.0800 
 42 H       -1.2640     8.5210    -1.5220 H     1 <1>   0.0800 
 43 H        0.4260     8.1030    -1.6440 H     1 <1>   0.0800 
 44 H        5.9430     7.1360    -1.3480 H     1 <1>   0.0800 
 45 H        7.7030     8.4480    -1.1070 H     1 <1>   0.3700 
 46 H        9.8130     9.0980    -0.6800 H     1 <1>   0.0800 
 47 H       10.5720     6.7020    -0.6170 H     1 <1>   0.0800 
 48 H       10.3280     6.7420     1.1300 H     1 <1>   0.0800 
 49 H        8.8340     8.5360     2.1310 H     1 <1>   0.0800 
 50 H        8.4650     9.9720     1.1890 H     1 <1>   0.0800 
 51 H       10.1020     9.6530     1.6990 H     1 <1>   0.0800 
 52 H       13.7240     7.6120     0.7550 H     1 <1>   0.0800 
 53 H       12.8940     6.3670    -0.1720 H     1 <1>   0.0800 
 54 H       12.6110     6.5180     1.5690 H     1 <1>   0.0800 
@<TRIPOS>BOND
  1   1   2  1   
  2   2   3  ar  
  3   2   4  ar  
  4   3   5  ar  
  5   3  28  1   
  6   4   6  ar  
  7   4  29  1   
  8   5   7  1   
  9   5   8  ar  
 10   6   8  ar  
 11   6  30  1   
 12   7   9  2   
 13   7  10  2   
 14   7  11  am  
 15   8  12  1   
 16  11  13  1   
 17  11  14  1   
 18  12  15  1   
 19  13  16  1   
 20  13  31  1   
 21  13  32  1   
 22  14  17  1   
 23  14  33  1   
 24  14  34  1   
 25  15  18  1   
 26  15  35  1   
 27  15  36  1   
 28  16  19  1   
 29  16  37  1   
 30  16  38  1   
 31  17  19  1   
 32  17  39  1   
 33  17  40  1   
 34  18  41  1   
 35  18  42  1   
 36  18  43  1   
 37  19  20  1   
 38  19  44  1   
 39  20  21  2   
 40  20  22  am  
 41  22  23  1   
 42  22  45  1   
 43  23  24  1   
 44  23  25  1   
 45  23  46  1   
 46  24  26  1   
 47  24  47  1   
 48  24  48  1   
 49  25  49  1   
 50  25  50  1   
 51  25  51  1   
 52  26  27  1   
 53  27  52  1   
 54  27  53  1   
 55  27  54  1   
@<TRIPOS>SUBSTRUCTURE
  1 ****  13 GROUP 4 **** **** 0

# MOE 2024.06 (io_trps.svl 2023.06)
