@<TRIPOS>MOLECULE
Dimethylamino-(4-fluoro-phenyl)-acetic acid
26 26 1 0 0 
SMALL
USER_CHARGES


@<TRIPOS>ATOM
  1 F        0.4670     0.1560     1.2910 F     1 <1>  -0.1900 
  2 C        1.5370     0.8030     0.9130 C.ar  1 <1>   0.1900 
  3 C        2.0610     1.7700     1.7480 C.ar  1 <1>  -0.1500 
  4 C        2.1050     0.4960    -0.3080 C.ar  1 <1>  -0.1500 
  5 C        3.1990     2.4480     1.3450 C.ar  1 <1>  -0.1500 
  6 C        3.2430     1.1810    -0.7010 C.ar  1 <1>  -0.1500 
  7 C        3.7990     2.1530     0.1240 C.ar  1 <1>  -0.1430 
  8 C        5.0730     2.8800    -0.3180 C.3   1 <1>   0.4610 
  9 N        6.2450     2.3760     0.5150 N.4   1 <1>  -0.9590 
 10 C        4.9380     4.4190    -0.2210 C.2   1 <1>   0.9060 
 11 C        7.5220     2.9330    -0.0190 C.3   1 <1>   0.2630 
 12 C        6.2790     0.9030     0.7330 C.3   1 <1>   0.2630 
 13 O        4.6750     5.0770    -1.2300 O.co2 1 <1>  -0.9000 
 14 O        5.2550     4.9360     0.8640 O.co2 1 <1>  -0.9000 
 15 H        1.5850     1.9890     2.6870 H     1 <1>   0.1500 
 16 H        1.6600    -0.2570    -0.9330 H     1 <1>   0.1500 
 17 H        3.6080     3.2150     1.9860 H     1 <1>   0.1500 
 18 H        3.6870     0.9540    -1.6560 H     1 <1>   0.1500 
 19 H        5.2500     2.6570    -1.3540 H     1 <1>   0.0800 
 20 H        6.0700     2.8850     1.4040 H     1 <1>   0.4500 
 21 H        7.7110     2.5570    -1.0100 H     1 <1>   0.0800 
 22 H        8.3440     2.6630     0.6230 H     1 <1>   0.0800 
 23 H        7.4650     4.0110    -0.0620 H     1 <1>   0.0800 
 24 H        6.3800     0.3900    -0.2080 H     1 <1>   0.0800 
 25 H        5.3680     0.5760     1.2090 H     1 <1>   0.0800 
 26 H        7.1090     0.6400     1.3680 H     1 <1>   0.0800 
@<TRIPOS>BOND
  1   1   2  1   
  2   2   3  ar  
  3   2   4  ar  
  4   3   5  ar  
  5   3  15  1   
  6   4   6  ar  
  7   4  16  1   
  8   5   7  ar  
  9   5  17  1   
 10   6   7  ar  
 11   6  18  1   
 12   7   8  1   
 13   8   9  1   
 14   8  10  1   
 15   8  19  1   
 16   9  11  1   
 17   9  12  1   
 18   9  20  1   
 19  10  13  ar  
 20  10  14  ar  
 21  11  21  1   
 22  11  22  1   
 23  11  23  1   
 24  12  24  1   
 25  12  25  1   
 26  12  26  1   
@<TRIPOS>SUBSTRUCTURE
  1 ****   7 GROUP 4 **** **** 0

# MOE 2024.06 (io_trps.svl 2023.06)
