@<TRIPOS>MOLECULE
5-(8-Methoxy-naphthalen-1-yl)-8,8-dimethyl-5,8,9,10-tetrahydro-1H,7H-pyrimido[4,
54 58 1 0 0 
SMALL
USER_CHARGES


@<TRIPOS>ATOM
  1 O       -0.7020     0.1610    -0.6480 O.2   1 <1>  -0.5700 
  2 C       -1.7290    -0.4350    -0.8780 C.2   1 <1>   0.6900 
  3 N       -2.8810    -0.1060    -0.2320 N.am  1 <1>  -0.5390 
  4 N       -1.7690    -1.4360    -1.7900 N.am  1 <1>  -0.4900 
  5 C       -4.0520    -0.7910    -0.4440 C.2   1 <1>   0.2090 
  6 C       -2.9150    -2.1130    -2.0910 C.2   1 <1>   0.6160 
  7 N       -5.1590    -0.4000     0.2630 N.pl3 1 <1>  -0.6000 
  8 C       -4.0800    -1.8190    -1.3370 C.2   1 <1>  -0.1240 
  9 O       -2.8640    -2.8830    -3.0320 O.2   1 <1>  -0.5700 
 10 C       -6.3560    -1.0770     0.1690 C.2   1 <1>  -0.0380 
 11 C       -5.3670    -2.6190    -1.5550 C.3   1 <1>   0.3400 
 12 C       -6.5290    -2.1350    -0.6700 C.2   1 <1>  -0.1240 
 13 C       -7.4720    -0.5700     1.0760 C.3   1 <1>  -0.0220 
 14 C       -5.1380    -4.1550    -1.5660 C.ar  1 <1>  -0.1440 
 15 C       -7.7810    -2.8030    -0.8060 C.2   1 <1>   0.4950 
 16 C       -8.8780    -1.0230     0.6220 C.3   1 <1>   0.0000 
 17 C       -4.5580    -4.9470    -0.5160 C.ar  1 <1>   0.0000 
 18 C       -5.5110    -4.7640    -2.7430 C.ar  1 <1>  -0.1500 
 19 O       -8.0830    -3.5370    -1.7150 O.2   1 <1>  -0.5700 
 20 C       -8.8440    -2.5160     0.2390 C.3   1 <1>  -0.0990 
 21 C       -9.3360    -0.1810    -0.5850 C.3   1 <1>  -0.2400 
 22 C       -9.8850    -0.8110     1.7640 C.3   1 <1>  -0.2400 
 23 C       -4.1930    -4.5200     0.8010 C.ar  1 <1>   0.0820 
 24 C       -4.3080    -6.3180    -0.8050 C.ar  1 <1>   0.0000 
 25 C       -5.3160    -6.1220    -2.9790 C.ar  1 <1>  -0.1500 
 26 O       -4.5280    -3.2700     1.1890 O.3   1 <1>  -0.3620 
 27 C       -3.5410    -5.3600     1.6800 C.ar  1 <1>  -0.1500 
 28 C       -3.6460    -7.1450     0.1230 C.ar  1 <1>  -0.1500 
 29 C       -4.7150    -6.8800    -2.0270 C.ar  1 <1>  -0.1500 
 30 C       -4.3330    -2.7890     2.5020 C.3   1 <1>   0.0400 
 31 C       -3.2580    -6.6780     1.3400 C.ar  1 <1>  -0.1500 
 32 H       -2.8040     0.6560     0.4360 H     1 <1>   0.3700 
 33 H       -0.9290    -1.6620    -2.3080 H     1 <1>   0.3700 
 34 H       -5.0830     0.4030     0.8910 H     1 <1>   0.4000 
 35 H       -5.6690    -2.3380    -2.5470 H     1 <1>   0.0800 
 36 H       -7.4450     0.5050     1.1210 H     1 <1>   0.0800 
 37 H       -7.2770    -0.9410     2.0660 H     1 <1>   0.0800 
 38 H       -5.9710    -4.2080    -3.5410 H     1 <1>   0.1500 
 39 H       -8.6240    -3.1170     1.1020 H     1 <1>   0.0800 
 40 H       -9.8020    -2.8230    -0.1400 H     1 <1>   0.0800 
 41 H       -8.6440    -0.2610    -1.4050 H     1 <1>   0.0800 
 42 H       -9.4120     0.8580    -0.3160 H     1 <1>   0.0800 
 43 H      -10.3010    -0.5090    -0.9290 H     1 <1>   0.0800 
 44 H       -9.6130    -1.3940     2.6260 H     1 <1>   0.0800 
 45 H      -10.8720    -1.1090     1.4560 H     1 <1>   0.0800 
 46 H       -9.9210     0.2250     2.0520 H     1 <1>   0.0800 
 47 H       -5.6360    -6.5450    -3.9150 H     1 <1>   0.1500 
 48 H       -3.2330    -5.0430     2.6570 H     1 <1>   0.1500 
 49 H       -3.4470    -8.1660    -0.1480 H     1 <1>   0.1500 
 50 H       -4.5440    -7.9260    -2.2020 H     1 <1>   0.1500 
 51 H       -4.7480    -1.8010     2.5620 H     1 <1>   0.0800 
 52 H       -3.2780    -2.7540     2.7060 H     1 <1>   0.0800 
 53 H       -4.8420    -3.4390     3.1910 H     1 <1>   0.0800 
 54 H       -2.7450    -7.3110     2.0430 H     1 <1>   0.1500 
@<TRIPOS>BOND
  1   1   2  2   
  2   2   3  am  
  3   2   4  am  
  4   3   5  1   
  5   3  32  1   
  6   4   6  am  
  7   4  33  1   
  8   5   7  1   
  9   5   8  2   
 10   6   8  1   
 11   6   9  2   
 12   7  10  1   
 13   7  34  1   
 14   8  11  1   
 15  10  12  2   
 16  10  13  1   
 17  11  12  1   
 18  11  14  1   
 19  11  35  1   
 20  12  15  1   
 21  13  16  1   
 22  13  36  1   
 23  13  37  1   
 24  14  17  ar  
 25  14  18  ar  
 26  15  19  2   
 27  15  20  1   
 28  16  20  1   
 29  16  21  1   
 30  16  22  1   
 31  17  23  ar  
 32  17  24  ar  
 33  18  25  ar  
 34  18  38  1   
 35  20  39  1   
 36  20  40  1   
 37  21  41  1   
 38  21  42  1   
 39  21  43  1   
 40  22  44  1   
 41  22  45  1   
 42  22  46  1   
 43  23  26  1   
 44  23  27  ar  
 45  24  28  ar  
 46  24  29  ar  
 47  25  29  ar  
 48  25  47  1   
 49  26  30  1   
 50  27  31  ar  
 51  27  48  1   
 52  28  31  ar  
 53  28  49  1   
 54  29  50  1   
 55  30  51  1   
 56  30  52  1   
 57  30  53  1   
 58  31  54  1   
@<TRIPOS>SUBSTRUCTURE
  1 ****  11 GROUP 4 **** **** 0

# MOE 2024.06 (io_trps.svl 2023.06)
