@<TRIPOS>MOLECULE
3-(3-Hydroxy-propyl)-8-(2-methoxy-ethyl)-1,7-dimethyl-1H,8H-imidazo[2,1-f]purine
46 48 1 0 0 
SMALL
USER_CHARGES


@<TRIPOS>ATOM
  1 O        1.2140    -0.2900    -1.5090 O.2   1 <1>  -0.5750 
  2 C        2.0530     0.5480    -1.2480 C.2   1 <1>   0.6860 
  3 N        1.6680     1.8500    -0.9380 N.am  1 <1>  -0.4260 
  4 N        3.3990     0.2030    -1.2620 N.am  1 <1>  -0.4420 
  5 C        2.6090     2.8300    -0.6490 C.2   1 <1>   0.6990 
  6 C        0.2140     2.1920    -0.8930 C.3   1 <1>   0.1320 
  7 C        4.3280     1.1870    -0.9910 C.2   1 <1>   0.4200 
  8 C        3.8300    -1.1840    -1.6050 C.3   1 <1>   0.0510 
  9 O        2.2710     3.9710    -0.3780 O.2   1 <1>  -0.5750 
 10 C        3.9850     2.4610    -0.6820 C.2   1 <1>   0.2700 
 11 C       -0.3510     1.9010     0.5000 C.3   1 <1>  -0.1680 
 12 N        5.6860     1.0750    -0.9650 N.pl3 1 <1>  -0.7040 
 13 N        5.1880     3.1450    -0.4390 N.pl3 1 <1>  -0.6340 
 14 C       -1.8380     2.2410     0.5550 C.3   1 <1>   0.1120 
 15 C        6.1650     2.2670    -0.6160 C.cat 1 <1>   1.0690 
 16 C        5.7810     4.3350    -0.0670 C.2   1 <1>   0.2220 
 17 O       -2.2910     1.9830     1.8320 O.3   1 <1>  -0.6840 
 18 N        7.3700     2.8080    -0.3870 N.pl3 1 <1>  -0.5720 
 19 C        7.1180     4.1290    -0.0380 C.2   1 <1>   0.1570 
 20 C        8.6990     2.1480    -0.5770 C.3   1 <1>   0.1600 
 21 C        8.2210     5.1130     0.3050 C.3   1 <1>  -0.1100 
 22 C        8.8850     0.8850     0.2800 C.3   1 <1>   0.1120 
 23 O        7.9370    -0.0840    -0.0650 O.3   1 <1>  -0.5650 
 24 C        8.1230    -1.2940     0.6030 C.3   1 <1>   0.0310 
 25 H       -0.3180     1.6140    -1.6310 H     1 <1>   0.0710 
 26 H        0.0720     3.2320    -1.1350 H     1 <1>   0.0710 
 27 H        3.0570    -1.8910    -1.3540 H     1 <1>   0.0710 
 28 H        4.7170    -1.4500    -1.0570 H     1 <1>   0.0710 
 29 H        4.0290    -1.2510    -2.6600 H     1 <1>   0.0710 
 30 H        0.1690     2.5000     1.2270 H     1 <1>   0.0710 
 31 H       -0.2180     0.8570     0.7260 H     1 <1>   0.0710 
 32 H        6.3090     0.2560    -0.9330 H     1 <1>   0.4440 
 33 H       -2.4080     1.6410    -0.1350 H     1 <1>   0.0710 
 34 H       -2.0060     3.2850     0.3510 H     1 <1>   0.0710 
 35 H        5.2090     5.2260     0.1440 H     1 <1>   0.1420 
 36 H       -2.1950     1.0340     2.0460 H     1 <1>   0.3940 
 37 H        9.4820     2.8420    -0.3260 H     1 <1>   0.0710 
 38 H        8.8230     1.8890    -1.6150 H     1 <1>   0.0710 
 39 H        8.8830     5.2380    -0.5340 H     1 <1>   0.0710 
 40 H        8.7870     4.7580     1.1480 H     1 <1>   0.0710 
 41 H        7.8030     6.0720     0.5550 H     1 <1>   0.0710 
 42 H        8.7830     1.1200     1.3260 H     1 <1>   0.0710 
 43 H        9.8670     0.4760     0.1050 H     1 <1>   0.0710 
 44 H        7.3530    -1.9790     0.2920 H     1 <1>   0.0710 
 45 H        8.0550    -1.1330     1.6660 H     1 <1>   0.0710 
 46 H        9.0870    -1.6990     0.3470 H     1 <1>   0.0710 
@<TRIPOS>BOND
  1   1   2  2   
  2   2   3  am  
  3   2   4  am  
  4   3   5  am  
  5   3   6  1   
  6   4   7  1   
  7   4   8  1   
  8   5   9  2   
  9   5  10  1   
 10   6  11  1   
 11   6  25  1   
 12   6  26  1   
 13   7  10  2   
 14   7  12  1   
 15   8  27  1   
 16   8  28  1   
 17   8  29  1   
 18  10  13  1   
 19  11  14  1   
 20  11  30  1   
 21  11  31  1   
 22  12  15  ar  
 23  12  32  1   
 24  13  15  ar  
 25  13  16  1   
 26  14  17  1   
 27  14  33  1   
 28  14  34  1   
 29  15  18  ar  
 30  16  19  2   
 31  16  35  1   
 32  17  36  1   
 33  18  19  1   
 34  18  20  1   
 35  19  21  1   
 36  20  22  1   
 37  20  37  1   
 38  20  38  1   
 39  21  39  1   
 40  21  40  1   
 41  21  41  1   
 42  22  23  1   
 43  22  42  1   
 44  22  43  1   
 45  23  24  1   
 46  24  44  1   
 47  24  45  1   
 48  24  46  1   
@<TRIPOS>SUBSTRUCTURE
  1 ****  10 GROUP 4 **** **** 0

# MOE 2024.06 (io_trps.svl 2023.06)
