@<TRIPOS>MOLECULE
1-Methanesulfonyl-piperidine-4-carboxylic acid (2-methoxy-1-methyl-ethyl)-amide
40 40 1 0 0 
SMALL
USER_CHARGES


@<TRIPOS>ATOM
  1 S       -0.1650     0.2710     0.1160 S.o2  1 <1>   1.3330 
  2 O       -0.2000    -0.4990    -1.1060 O.2   1 <1>  -0.6500 
  3 O       -1.0760     1.3780     0.2970 O.2   1 <1>  -0.6500 
  4 N        1.4190     0.8340     0.3290 N.am  1 <1>  -0.8490 
  5 C       -0.3700    -0.8260     1.5030 C.3   1 <1>  -0.1350 
  6 C        1.5890     2.1980    -0.1820 C.3   1 <1>   0.1960 
  7 C        2.4170    -0.0820    -0.2360 C.3   1 <1>   0.1960 
  8 C        2.9810     2.7330     0.1640 C.3   1 <1>  -0.1600 
  9 C        3.8300     0.3770     0.1290 C.3   1 <1>  -0.1600 
 10 C        4.0900     1.8100    -0.3650 C.3   1 <1>  -0.0190 
 11 C        5.4740     2.3200     0.0340 C.2   1 <1>   0.5690 
 12 O        5.8410     2.2020     1.1780 O.2   1 <1>  -0.5700 
 13 N        6.2420     2.9060    -0.9240 N.am  1 <1>  -0.7300 
 14 C        7.5720     3.5460    -0.7580 C.3   1 <1>   0.2200 
 15 C        8.5410     2.6900     0.0760 C.3   1 <1>   0.1200 
 16 C        7.3630     4.9380    -0.1620 C.3   1 <1>  -0.2400 
 17 O        9.8370     3.1960    -0.0610 O.3   1 <1>  -0.5600 
 18 C       10.7790     2.5320     0.7160 C.3   1 <1>   0.0400 
 19 H        0.3400    -1.6260     1.4550 H     1 <1>   0.0800 
 20 H       -1.3580    -1.2400     1.4980 H     1 <1>   0.0800 
 21 H       -0.2250    -0.2870     2.4190 H     1 <1>   0.0800 
 22 H        0.8570     2.8490     0.2680 H     1 <1>   0.0800 
 23 H        1.4360     2.2080    -1.2490 H     1 <1>   0.0800 
 24 H        2.3110    -0.1230    -1.3080 H     1 <1>   0.0800 
 25 H        2.2610    -1.0750     0.1520 H     1 <1>   0.0800 
 26 H        3.0620     2.8190     1.2350 H     1 <1>   0.0800 
 27 H        3.0980     3.7170    -0.2510 H     1 <1>   0.0800 
 28 H        4.5490    -0.2930    -0.3090 H     1 <1>   0.0800 
 29 H        3.9460     0.3290     1.1980 H     1 <1>   0.0800 
 30 H        4.0330     1.8020    -1.4390 H     1 <1>   0.0800 
 31 H        5.8510     3.0190    -1.8590 H     1 <1>   0.3700 
 32 H        8.0060     3.6490    -1.7380 H     1 <1>   0.0800 
 33 H        8.5360     1.6740    -0.2770 H     1 <1>   0.0800 
 34 H        8.2700     2.7210     1.1170 H     1 <1>   0.0800 
 35 H        6.9360     4.8620     0.8220 H     1 <1>   0.0800 
 36 H        6.7180     5.5240    -0.7900 H     1 <1>   0.0800 
 37 H        8.3100     5.4420    -0.0820 H     1 <1>   0.0800 
 38 H       11.7380     2.9860     0.5400 H     1 <1>   0.0800 
 39 H       10.8100     1.4950     0.4300 H     1 <1>   0.0800 
 40 H       10.5160     2.6310     1.7550 H     1 <1>   0.0800 
@<TRIPOS>BOND
  1   1   2  2   
  2   1   3  2   
  3   1   4  am  
  4   1   5  1   
  5   4   6  1   
  6   4   7  1   
  7   5  19  1   
  8   5  20  1   
  9   5  21  1   
 10   6   8  1   
 11   6  22  1   
 12   6  23  1   
 13   7   9  1   
 14   7  24  1   
 15   7  25  1   
 16   8  10  1   
 17   8  26  1   
 18   8  27  1   
 19   9  10  1   
 20   9  28  1   
 21   9  29  1   
 22  10  11  1   
 23  10  30  1   
 24  11  12  2   
 25  11  13  am  
 26  13  14  1   
 27  13  31  1   
 28  14  15  1   
 29  14  16  1   
 30  14  32  1   
 31  15  17  1   
 32  15  33  1   
 33  15  34  1   
 34  16  35  1   
 35  16  36  1   
 36  16  37  1   
 37  17  18  1   
 38  18  38  1   
 39  18  39  1   
 40  18  40  1   
@<TRIPOS>SUBSTRUCTURE
  1 ****  10 GROUP 4 **** **** 0

# MOE 2024.06 (io_trps.svl 2023.06)
