@<TRIPOS>MOLECULE
8-Cyclohexylamino-3-methyl-7-(3-phenoxy-propyl)-3,7-dihydro-purine-2,6-dione
57 60 1 0 0 
SMALL
USER_CHARGES


@<TRIPOS>ATOM
  1 O        0.7700     1.1110     1.6950 O.2   1 <1>  -0.5740 
  2 C        1.8110     1.4300     1.1710 C.2   1 <1>   0.6870 
  3 N        2.9560     0.6490     1.2630 N.am  1 <1>  -0.4410 
  4 N        1.8530     2.5970     0.4650 N.am  1 <1>  -0.4940 
  5 C        4.0950     1.1000     0.6130 C.2   1 <1>   0.4210 
  6 C        2.9540    -0.6340     2.0250 C.3   1 <1>   0.0530 
  7 C        2.9660     3.0550    -0.1810 C.2   1 <1>   0.7000 
  8 N        5.3160     0.5000     0.5570 N.pl3 1 <1>  -0.7030 
  9 C        4.1520     2.2540    -0.0920 C.2   1 <1>   0.2710 
 10 O        2.9030     4.0990    -0.7970 O.2   1 <1>  -0.5740 
 11 C        6.1200     1.2690    -0.1720 C.cat 1 <1>   1.0690 
 12 N        5.4670     2.3530    -0.5880 N.pl3 1 <1>  -0.7670 
 13 N        7.3940     1.0130    -0.4320 N.pl3 1 <1>  -0.7170 
 14 C        5.9560     3.4940    -1.4080 C.3   1 <1>   0.3490 
 15 C        8.2510    -0.0810     0.0450 C.3   1 <1>   0.2420 
 16 C        6.3270     4.6880    -0.5270 C.3   1 <1>  -0.1660 
 17 C        9.1940     0.4730     1.1280 C.3   1 <1>  -0.1660 
 18 C        9.0460    -0.6020    -1.1570 C.3   1 <1>  -0.1660 
 19 C        7.3110     4.3370     0.5960 C.3   1 <1>   0.1130 
 20 C       10.5330     1.0250     0.5930 C.3   1 <1>  -0.1660 
 21 C        9.9270     0.4800    -1.8210 C.3   1 <1>  -0.1660 
 22 O        7.9180     5.5210     1.0500 O.3   1 <1>  -0.3680 
 23 C       10.4320     1.5580    -0.8420 C.3   1 <1>  -0.1660 
 24 C        9.0820     5.8800     0.4660 C.ar  1 <1>   0.0760 
 25 C       10.2160     5.0890     0.5920 C.ar  1 <1>  -0.1560 
 26 C        9.1320     7.0570    -0.2630 C.ar  1 <1>  -0.1560 
 27 C       11.3900     5.4620    -0.0390 C.ar  1 <1>  -0.1560 
 28 C       10.3080     7.4290    -0.8920 C.ar  1 <1>  -0.1560 
 29 C       11.4340     6.6290    -0.7830 C.ar  1 <1>  -0.1560 
 30 H        0.9960     3.1440     0.4150 H     1 <1>   0.3650 
 31 H        2.0200    -0.7720     2.5430 H     1 <1>   0.0730 
 32 H        3.7440    -0.6290     2.7550 H     1 <1>   0.0730 
 33 H        3.0920    -1.4600     1.3500 H     1 <1>   0.0730 
 34 H        5.5850    -0.3800     0.9860 H     1 <1>   0.4450 
 35 H        7.9250     1.6630    -1.0070 H     1 <1>   0.4450 
 36 H        5.1910     3.7900    -2.1090 H     1 <1>   0.0730 
 37 H        6.8170     3.1920    -1.9800 H     1 <1>   0.0730 
 38 H        7.6510    -0.8740     0.4580 H     1 <1>   0.0730 
 39 H        5.4370     5.1180    -0.1030 H     1 <1>   0.0730 
 40 H        6.7720     5.4310    -1.1660 H     1 <1>   0.0730 
 41 H        9.4310    -0.3260     1.8110 H     1 <1>   0.0730 
 42 H        8.6920     1.2310     1.7030 H     1 <1>   0.0730 
 43 H        9.6880    -1.3930    -0.8070 H     1 <1>   0.0730 
 44 H        8.3850    -1.0390    -1.8850 H     1 <1>   0.0730 
 45 H        8.0770     3.6650     0.2550 H     1 <1>   0.0730 
 46 H        6.7970     3.8960     1.4320 H     1 <1>   0.0730 
 47 H       10.8980     1.7960     1.2490 H     1 <1>   0.0730 
 48 H       11.2630     0.2330     0.6020 H     1 <1>   0.0730 
 49 H        9.3900     0.9570    -2.6230 H     1 <1>   0.0730 
 50 H       10.7760    -0.0120    -2.2670 H     1 <1>   0.0730 
 51 H       11.4010     1.9020    -1.1640 H     1 <1>   0.0730 
 52 H        9.7800     2.4120    -0.8580 H     1 <1>   0.0730 
 53 H       10.1850     4.1960     1.1870 H     1 <1>   0.1440 
 54 H        8.2550     7.6740    -0.3350 H     1 <1>   0.1440 
 55 H       12.2710     4.8510     0.0530 H     1 <1>   0.1440 
 56 H       10.3480     8.3410    -1.4620 H     1 <1>   0.1440 
 57 H       12.3470     6.9200    -1.2730 H     1 <1>   0.1440 
@<TRIPOS>BOND
  1   1   2  2   
  2   2   3  am  
  3   2   4  am  
  4   3   5  1   
  5   3   6  1   
  6   4   7  am  
  7   4  30  1   
  8   5   8  1   
  9   5   9  2   
 10   6  31  1   
 11   6  32  1   
 12   6  33  1   
 13   7   9  1   
 14   7  10  2   
 15   8  11  ar  
 16   8  34  1   
 17   9  12  1   
 18  11  12  ar  
 19  11  13  ar  
 20  12  14  1   
 21  13  15  1   
 22  13  35  1   
 23  14  16  1   
 24  14  36  1   
 25  14  37  1   
 26  15  17  1   
 27  15  18  1   
 28  15  38  1   
 29  16  19  1   
 30  16  39  1   
 31  16  40  1   
 32  17  20  1   
 33  17  41  1   
 34  17  42  1   
 35  18  21  1   
 36  18  43  1   
 37  18  44  1   
 38  19  22  1   
 39  19  45  1   
 40  19  46  1   
 41  20  23  1   
 42  20  47  1   
 43  20  48  1   
 44  21  23  1   
 45  21  49  1   
 46  21  50  1   
 47  22  24  1   
 48  23  51  1   
 49  23  52  1   
 50  24  25  ar  
 51  24  26  ar  
 52  25  27  ar  
 53  25  53  1   
 54  26  28  ar  
 55  26  54  1   
 56  27  29  ar  
 57  27  55  1   
 58  28  29  ar  
 59  28  56  1   
 60  29  57  1   
@<TRIPOS>SUBSTRUCTURE
  1 ****  12 GROUP 4 **** **** 0

# MOE 2024.06 (io_trps.svl 2023.06)
