@<TRIPOS>MOLECULE
2-Morpholin-4-ylmethyl-benzoic acid
31 32 1 0 0 
SMALL
USER_CHARGES


@<TRIPOS>ATOM
  1 O       -1.7120    -0.5180     0.9880 O.co2 1 <1>  -0.9000 
  2 C       -1.4260     0.3660     0.1620 C.2   1 <1>   0.9790 
  3 O       -0.9640     0.0090    -0.9280 O.co2 1 <1>  -0.9000 
  4 C       -2.0740     1.6530     0.3010 C.ar  1 <1>  -0.1790 
  5 C       -3.3000     1.8640    -0.3420 C.ar  1 <1>  -0.1440 
  6 C       -1.5490     2.6780     1.0840 C.ar  1 <1>  -0.1500 
  7 C       -3.9710     3.0670    -0.1970 C.ar  1 <1>  -0.1500 
  8 C       -3.8620     0.7460    -1.2130 C.3   1 <1>   0.4870 
  9 C       -2.2220     3.8780     1.2250 C.ar  1 <1>  -0.1500 
 10 C       -3.4330     4.0730     0.5860 C.ar  1 <1>  -0.1500 
 11 N       -4.0950    -0.4560    -0.3740 N.4   1 <1>  -0.9590 
 12 C       -3.8930    -1.7330    -1.1120 C.3   1 <1>   0.3430 
 13 C       -5.2930    -0.4310     0.5030 C.3   1 <1>   0.3430 
 14 C       -4.0350    -2.9280    -0.1510 C.3   1 <1>   0.1200 
 15 C       -5.3520    -1.7090     1.3620 C.3   1 <1>   0.1200 
 16 O       -5.2480    -2.8490     0.5520 O.3   1 <1>  -0.5600 
 17 H       -0.6090     2.5230     1.5860 H     1 <1>   0.1500 
 18 H       -4.9110     3.2380    -0.6930 H     1 <1>   0.1500 
 19 H       -3.1280     0.5180    -1.9710 H     1 <1>   0.0800 
 20 H       -4.7730     1.0550    -1.6950 H     1 <1>   0.0800 
 21 H       -1.8010     4.6590     1.8330 H     1 <1>   0.1500 
 22 H       -3.9520     5.0100     0.6980 H     1 <1>   0.1500 
 23 H       -3.2740    -0.4690     0.2830 H     1 <1>   0.4500 
 24 H       -2.9030    -1.7440    -1.5420 H     1 <1>   0.0800 
 25 H       -4.6150    -1.8260    -1.9040 H     1 <1>   0.0800 
 26 H       -6.1860    -0.3690    -0.0950 H     1 <1>   0.0800 
 27 H       -5.2530     0.4320     1.1480 H     1 <1>   0.0800 
 28 H       -3.2190    -2.9390     0.5540 H     1 <1>   0.0800 
 29 H       -4.0270    -3.8510    -0.7020 H     1 <1>   0.0800 
 30 H       -6.2870    -1.7620     1.8900 H     1 <1>   0.0800 
 31 H       -4.5480    -1.7200     2.0790 H     1 <1>   0.0800 
@<TRIPOS>BOND
  1   1   2  ar  
  2   2   3  ar  
  3   2   4  1   
  4   4   5  ar  
  5   4   6  ar  
  6   5   7  ar  
  7   5   8  1   
  8   6   9  ar  
  9   6  17  1   
 10   7  10  ar  
 11   7  18  1   
 12   8  11  1   
 13   8  19  1   
 14   8  20  1   
 15   9  10  ar  
 16   9  21  1   
 17  10  22  1   
 18  11  12  1   
 19  11  13  1   
 20  11  23  1   
 21  12  14  1   
 22  12  24  1   
 23  12  25  1   
 24  13  15  1   
 25  13  26  1   
 26  13  27  1   
 27  14  16  1   
 28  14  28  1   
 29  14  29  1   
 30  15  16  1   
 31  15  30  1   
 32  15  31  1   
@<TRIPOS>SUBSTRUCTURE
  1 ****  11 GROUP 4 **** **** 0

# MOE 2024.06 (io_trps.svl 2023.06)
