@<TRIPOS>MOLECULE
1-(2,3-Dimethyl-phenyl)-5-oxo-pyrrolidine-3-carboxylic acid cyclohexylamide
49 51 1 0 0 
SMALL
USER_CHARGES


@<TRIPOS>ATOM
  1 O        0.2110    -0.6440     1.9780 O.2   1 <1>  -0.5700 
  2 C        1.2500    -0.6990     1.3680 C.2   1 <1>   0.5690 
  3 N        1.7500    -1.7680     0.6870 N.am  1 <1>  -0.4770 
  4 C        2.1690     0.4850     1.2650 C.3   1 <1>  -0.0990 
  5 C        1.2060    -3.0600     0.5710 C.ar  1 <1>   0.1170 
  6 C        3.0530    -1.4440     0.0790 C.3   1 <1>   0.1400 
  7 C        3.1160     0.0910     0.1200 C.3   1 <1>  -0.0190 
  8 C        0.0030    -3.3180    -0.0980 C.ar  1 <1>  -0.1440 
  9 C        1.9060    -4.1160     1.1410 C.ar  1 <1>  -0.1500 
 10 C        4.5220     0.6580     0.2750 C.2   1 <1>   0.5690 
 11 C       -0.4810    -4.6240    -0.1660 C.ar  1 <1>  -0.1440 
 12 C       -0.7720    -2.1650    -0.7410 C.3   1 <1>  -0.0970 
 13 C        1.4320    -5.4080     1.0600 C.ar  1 <1>  -0.1500 
 14 O        5.4320    -0.0730     0.5740 O.2   1 <1>  -0.5700 
 15 N        4.7740     1.9740     0.0900 N.am  1 <1>  -0.7300 
 16 C        0.2410    -5.6590     0.4080 C.ar  1 <1>  -0.1500 
 17 C       -1.7980    -4.9700    -0.8500 C.3   1 <1>  -0.0970 
 18 C        3.8610     3.0730    -0.2650 C.3   1 <1>   0.2200 
 19 C        4.4290     3.8170    -1.4760 C.3   1 <1>  -0.1600 
 20 C        3.7160     4.0060     0.9410 C.3   1 <1>  -0.1600 
 21 C        3.5610     5.0340    -1.8320 C.3   1 <1>  -0.1600 
 22 C        2.8450     5.2230     0.5960 C.3   1 <1>  -0.1600 
 23 C        3.3980     5.9700    -0.6260 C.3   1 <1>  -0.1600 
 24 H        2.6990     0.5900     2.1930 H     1 <1>   0.0800 
 25 H        1.6160     1.3800     1.0490 H     1 <1>   0.0800 
 26 H        3.1100    -1.8170    -0.9290 H     1 <1>   0.0800 
 27 H        3.8310    -1.8910     0.6750 H     1 <1>   0.0800 
 28 H        2.7080     0.4430    -0.8090 H     1 <1>   0.0800 
 29 H        2.8270    -3.9210     1.6600 H     1 <1>   0.1500 
 30 H       -0.1030    -1.4080    -1.1050 H     1 <1>   0.0800 
 31 H       -1.4250    -1.7240    -0.0090 H     1 <1>   0.0800 
 32 H       -1.3580    -2.4930    -1.5770 H     1 <1>   0.0800 
 33 H        1.9850    -6.2160     1.5050 H     1 <1>   0.1500 
 34 H        5.7460     2.2530     0.2340 H     1 <1>   0.3700 
 35 H       -0.1230    -6.6700     0.3560 H     1 <1>   0.1500 
 36 H       -2.5820    -4.3290    -0.4870 H     1 <1>   0.0800 
 37 H       -2.0830    -5.9870    -0.6500 H     1 <1>   0.0800 
 38 H       -1.7030    -4.8470    -1.9130 H     1 <1>   0.0800 
 39 H        2.8910     2.6860    -0.5250 H     1 <1>   0.0800 
 40 H        4.4700     3.1520    -2.3210 H     1 <1>   0.0800 
 41 H        5.4270     4.1540    -1.2580 H     1 <1>   0.0800 
 42 H        4.6880     4.3490     1.2500 H     1 <1>   0.0800 
 43 H        3.2690     3.4710     1.7600 H     1 <1>   0.0800 
 44 H        2.5900     4.7000    -2.1570 H     1 <1>   0.0800 
 45 H        4.0130     5.5730    -2.6470 H     1 <1>   0.0800 
 46 H        2.8080     5.8910     1.4390 H     1 <1>   0.0800 
 47 H        1.8400     4.8980     0.3890 H     1 <1>   0.0800 
 48 H        2.7350     6.7780    -0.8840 H     1 <1>   0.0800 
 49 H        4.3540     6.3990    -0.3770 H     1 <1>   0.0800 
@<TRIPOS>BOND
  1   1   2  2   
  2   2   3  am  
  3   2   4  1   
  4   3   5  1   
  5   3   6  1   
  6   4   7  1   
  7   4  24  1   
  8   4  25  1   
  9   5   8  ar  
 10   5   9  ar  
 11   6   7  1   
 12   6  26  1   
 13   6  27  1   
 14   7  10  1   
 15   7  28  1   
 16   8  11  ar  
 17   8  12  1   
 18   9  13  ar  
 19   9  29  1   
 20  10  14  2   
 21  10  15  am  
 22  11  16  ar  
 23  11  17  1   
 24  12  30  1   
 25  12  31  1   
 26  12  32  1   
 27  13  16  ar  
 28  13  33  1   
 29  15  18  1   
 30  15  34  1   
 31  16  35  1   
 32  17  36  1   
 33  17  37  1   
 34  17  38  1   
 35  18  19  1   
 36  18  20  1   
 37  18  39  1   
 38  19  21  1   
 39  19  40  1   
 40  19  41  1   
 41  20  22  1   
 42  20  42  1   
 43  20  43  1   
 44  21  23  1   
 45  21  44  1   
 46  21  45  1   
 47  22  23  1   
 48  22  46  1   
 49  22  47  1   
 50  23  48  1   
 51  23  49  1   
@<TRIPOS>SUBSTRUCTURE
  1 ****   7 GROUP 4 **** **** 0

# MOE 2024.06 (io_trps.svl 2023.06)
