@<TRIPOS>MOLECULE
9-Thiophen-2-yl-5,6,7,9-tetrahydro-4H-[1,2,4]triazolo[5,1-b]quinazolin-8-one
32 35 1 0 0 
SMALL
USER_CHARGES


@<TRIPOS>ATOM
  1 S       -1.5570    -1.2100     1.7540 S.3   1 <1>  -0.0920 
  2 C       -1.5330    -1.0960    -0.0050 C.2   1 <1>  -0.1520 
  3 C       -1.7100     0.5290     1.9110 C.2   1 <1>  -0.1220 
  4 C       -1.6330     0.1910    -0.3890 C.2   1 <1>  -0.1620 
  5 C       -1.4050    -2.3880    -0.8010 C.3   1 <1>   0.7470 
  6 C       -1.7350     1.1140     0.7000 C.2   1 <1>  -0.1620 
  7 N       -2.5530    -3.2580    -0.4360 N.pl3 1 <1>  -0.4660 
  8 C       -0.0860    -3.0730    -0.4640 C.2   1 <1>  -0.1360 
  9 N       -3.8710    -3.0450    -0.7320 N.2   1 <1>  -0.2710 
 10 C       -2.4170    -4.2890     0.3650 C.cat 1 <1>   1.0680 
 11 C       -0.0560    -4.1750     0.3220 C.2   1 <1>   0.1530 
 12 C        1.0660    -2.4580    -1.0130 C.2   1 <1>   0.4860 
 13 C       -4.4800    -3.9680    -0.0830 C.2   1 <1>   0.4950 
 14 N       -3.6110    -4.7680     0.6120 N.pl3 1 <1>  -0.7060 
 15 N       -1.2250    -4.7410     0.7910 N.pl3 1 <1>  -0.6960 
 16 C        1.2550    -4.8410     0.7190 C.3   1 <1>  -0.0350 
 17 O        1.0060    -1.5670    -1.8200 O.2   1 <1>  -0.5770 
 18 C        2.4270    -2.9730    -0.5740 C.3   1 <1>  -0.1110 
 19 C        2.3900    -4.4790    -0.2560 C.3   1 <1>  -0.1720 
 20 H       -1.7640     0.9390     2.9040 H     1 <1>   0.1380 
 21 H       -1.6360     0.5500    -1.4050 H     1 <1>   0.1380 
 22 H       -1.4570    -2.1740    -1.8560 H     1 <1>   0.0680 
 23 H       -1.8210     2.1720     0.5190 H     1 <1>   0.1380 
 24 H       -5.5510    -4.1140    -0.0730 H     1 <1>   0.1380 
 25 H       -3.8560    -5.5610     1.1980 H     1 <1>   0.4410 
 26 H       -1.1910    -5.5380     1.4280 H     1 <1>   0.4410 
 27 H        1.1420    -5.9120     0.7300 H     1 <1>   0.0680 
 28 H        1.5210    -4.5240     1.7130 H     1 <1>   0.0680 
 29 H        2.7360    -2.4220     0.2960 H     1 <1>   0.0680 
 30 H        3.1450    -2.7880    -1.3540 H     1 <1>   0.0680 
 31 H        2.2440    -5.0200    -1.1760 H     1 <1>   0.0680 
 32 H        3.3360    -4.7890     0.1540 H     1 <1>   0.0680 
@<TRIPOS>BOND
  1   1   2  1   
  2   1   3  1   
  3   2   4  2   
  4   2   5  1   
  5   3   6  2   
  6   3  20  1   
  7   4   6  1   
  8   4  21  1   
  9   5   7  1   
 10   5   8  1   
 11   5  22  1   
 12   6  23  1   
 13   7   9  1   
 14   7  10  ar  
 15   8  11  2   
 16   8  12  1   
 17   9  13  2   
 18  10  14  ar  
 19  10  15  ar  
 20  11  15  1   
 21  11  16  1   
 22  12  17  2   
 23  12  18  1   
 24  13  14  1   
 25  13  24  1   
 26  14  25  1   
 27  15  26  1   
 28  16  19  1   
 29  16  27  1   
 30  16  28  1   
 31  18  19  1   
 32  18  29  1   
 33  18  30  1   
 34  19  31  1   
 35  19  32  1   
@<TRIPOS>SUBSTRUCTURE
  1 ****   5 GROUP 4 **** **** 0

# MOE 2024.06 (io_trps.svl 2023.06)
