@<TRIPOS>MOLECULE
4-(Azepane-1-sulfonyl)-piperazine-1-sulfonic acid dimethylamide
48 49 1 0 0 
SMALL
USER_CHARGES


@<TRIPOS>ATOM
  1 S       -0.0200     0.0320     1.5450 S.o2  1 <1>   1.5760 
  2 O        0.2330    -1.2100     2.2410 O.2   1 <1>  -0.6500 
  3 O       -0.3620     1.2290     2.2790 O.2   1 <1>  -0.6500 
  4 N       -1.1840    -0.2140     0.3450 N.am  1 <1>  -0.8490 
  5 N        1.3290     0.3590     0.5890 N.am  1 <1>  -0.8490 
  6 C       -1.4830     1.0440    -0.3470 C.3   1 <1>   0.1960 
  7 C       -2.3770    -0.8610     0.9000 C.3   1 <1>   0.1960 
  8 C        2.4450     0.8540     1.4070 C.3   1 <1>   0.1960 
  9 C        1.7610    -0.8270    -0.1710 C.3   1 <1>   0.1960 
 10 C       -2.3510     0.8600    -1.5980 C.3   1 <1>  -0.1600 
 11 C       -3.1080    -1.6490    -0.1910 C.3   1 <1>  -0.1600 
 12 C        3.6850     1.1580     0.5450 C.3   1 <1>   0.1960 
 13 C        3.0000    -0.5230    -1.0340 C.3   1 <1>   0.1960 
 14 C       -3.8310     0.6070    -1.2740 C.3   1 <1>  -0.1600 
 15 C       -4.1690    -0.8600    -0.9760 C.3   1 <1>  -0.1600 
 16 N        4.1170    -0.0250    -0.2180 N.am  1 <1>  -0.8490 
 17 S        5.4590     0.3080    -1.1820 S.o2  1 <1>   1.5760 
 18 O        5.2300     1.5700    -1.8490 O.2   1 <1>  -0.6500 
 19 O        5.7870    -0.8780    -1.9410 O.2   1 <1>  -0.6500 
 20 N        6.6380     0.5180     0.0130 N.am  1 <1>  -0.8490 
 21 C        6.9660    -0.7350     0.6980 C.3   1 <1>   0.1160 
 22 C        7.8520     1.1250    -0.5340 C.3   1 <1>   0.1160 
 23 H       -0.5580     1.4940    -0.6650 H     1 <1>   0.0800 
 24 H       -1.9560     1.7360     0.3310 H     1 <1>   0.0800 
 25 H       -3.0240    -0.1420     1.3750 H     1 <1>   0.0800 
 26 H       -2.0800    -1.5750     1.6500 H     1 <1>   0.0800 
 27 H        2.7070     0.1240     2.1550 H     1 <1>   0.0800 
 28 H        2.1460     1.7570     1.9120 H     1 <1>   0.0800 
 29 H        0.9620    -1.1540    -0.8140 H     1 <1>   0.0800 
 30 H        1.9980    -1.6360     0.5010 H     1 <1>   0.0800 
 31 H       -1.9470     0.0840    -2.2240 H     1 <1>   0.0800 
 32 H       -2.2950     1.7780    -2.1560 H     1 <1>   0.0800 
 33 H       -3.6020    -2.4850     0.2730 H     1 <1>   0.0800 
 34 H       -2.3790    -2.0580    -0.8690 H     1 <1>   0.0800 
 35 H        4.4850     1.4840     1.1870 H     1 <1>   0.0800 
 36 H        3.4480     1.9690    -0.1250 H     1 <1>   0.0800 
 37 H        2.7370     0.2050    -1.7830 H     1 <1>   0.0800 
 38 H        3.3000    -1.4270    -1.5380 H     1 <1>   0.0800 
 39 H       -4.4300     0.9210    -2.1110 H     1 <1>   0.0800 
 40 H       -4.1200     1.2190    -0.4370 H     1 <1>   0.0800 
 41 H       -5.0970    -0.8840    -0.4320 H     1 <1>   0.0800 
 42 H       -4.3380    -1.3730    -1.9070 H     1 <1>   0.0800 
 43 H        6.0770    -1.1610     1.1320 H     1 <1>   0.0800 
 44 H        7.6730    -0.5500     1.4880 H     1 <1>   0.0800 
 45 H        7.3870    -1.4470     0.0070 H     1 <1>   0.0800 
 46 H        7.6180     2.0810    -0.9730 H     1 <1>   0.0800 
 47 H        8.2800     0.4910    -1.2930 H     1 <1>   0.0800 
 48 H        8.5750     1.2810     0.2480 H     1 <1>   0.0800 
@<TRIPOS>BOND
  1   1   2  2   
  2   1   3  2   
  3   1   4  am  
  4   1   5  am  
  5   4   6  1   
  6   4   7  1   
  7   5   8  1   
  8   5   9  1   
  9   6  10  1   
 10   6  23  1   
 11   6  24  1   
 12   7  11  1   
 13   7  25  1   
 14   7  26  1   
 15   8  12  1   
 16   8  27  1   
 17   8  28  1   
 18   9  13  1   
 19   9  29  1   
 20   9  30  1   
 21  10  14  1   
 22  10  31  1   
 23  10  32  1   
 24  11  15  1   
 25  11  33  1   
 26  11  34  1   
 27  12  16  1   
 28  12  35  1   
 29  12  36  1   
 30  13  16  1   
 31  13  37  1   
 32  13  38  1   
 33  14  15  1   
 34  14  39  1   
 35  14  40  1   
 36  15  41  1   
 37  15  42  1   
 38  16  17  am  
 39  17  18  2   
 40  17  19  2   
 41  17  20  am  
 42  20  21  1   
 43  20  22  1   
 44  21  43  1   
 45  21  44  1   
 46  21  45  1   
 47  22  46  1   
 48  22  47  1   
 49  22  48  1   
@<TRIPOS>SUBSTRUCTURE
  1 ****   5 GROUP 4 **** **** 0

# MOE 2024.06 (io_trps.svl 2023.06)
