@<TRIPOS>MOLECULE
1-(2,5-Dimethoxy-benzenesulfonyl)-piperidine-4-carboxylic acid (2-methoxy-ethyl)
52 53 1 0 0 
SMALL
USER_CHARGES


@<TRIPOS>ATOM
  1 S       -0.2640    -0.1140     1.3980 S.o2  1 <1>   1.4470 
  2 O       -0.0550    -1.2750     2.2380 O.2   1 <1>  -0.6500 
  3 O       -0.6930     1.1070     2.0470 O.2   1 <1>  -0.6500 
  4 N        1.2330     0.2200     0.6700 N.am  1 <1>  -0.8490 
  5 C       -1.3440    -0.6150     0.0280 C.ar  1 <1>  -0.0090 
  6 C        2.2940     0.2950     1.6800 C.3   1 <1>   0.1960 
  7 C        1.1860     1.4330    -0.1540 C.3   1 <1>   0.1960 
  8 C       -2.1060     0.2970    -0.7000 C.ar  1 <1>   0.0830 
  9 C       -1.4160    -1.9540    -0.3400 C.ar  1 <1>  -0.1500 
 10 C        3.6620     0.4810     1.0180 C.3   1 <1>  -0.1600 
 11 C        2.5200     1.6530    -0.8720 C.3   1 <1>  -0.1600 
 12 O       -2.0540     1.6170    -0.4230 O.3   1 <1>  -0.3620 
 13 C       -2.9150    -0.1160    -1.7500 C.ar  1 <1>  -0.1500 
 14 C       -2.2280    -2.3810    -1.3860 C.ar  1 <1>   0.0830 
 15 C        3.6850     1.7320     0.1260 C.3   1 <1>  -0.0190 
 16 C       -3.1480     2.1510     0.2890 C.3   1 <1>   0.0400 
 17 C       -2.9770    -1.4530    -2.0880 C.ar  1 <1>  -0.1500 
 18 O       -2.3390    -3.6760    -1.7780 O.3   1 <1>  -0.3630 
 19 C        5.0260     1.9040    -0.5860 C.2   1 <1>   0.5690 
 20 C       -1.6150    -4.6990    -1.1290 C.3   1 <1>   0.0400 
 21 O        5.4500     1.0180    -1.2880 O.2   1 <1>  -0.5700 
 22 N        5.7150     3.0610    -0.4080 N.am  1 <1>  -0.7300 
 23 C        6.9910     3.3950    -1.0950 C.3   1 <1>   0.1400 
 24 C        8.1610     2.6370    -0.4680 C.3   1 <1>   0.1200 
 25 O        9.3480     3.1560    -0.9810 O.3   1 <1>  -0.5600 
 26 C       10.4870     2.4830    -0.5540 C.3   1 <1>   0.0400 
 27 H        2.3150    -0.6180     2.2520 H     1 <1>   0.0800 
 28 H        2.0940     1.1090     2.3570 H     1 <1>   0.0800 
 29 H        0.9510     2.2880     0.4600 H     1 <1>   0.0800 
 30 H        0.4170     1.3350    -0.9010 H     1 <1>   0.0800 
 31 H       -0.8220    -2.6590     0.2120 H     1 <1>   0.1500 
 32 H        3.8820    -0.3930     0.4290 H     1 <1>   0.0800 
 33 H        4.4180     0.5620     1.7780 H     1 <1>   0.0800 
 34 H        2.4710     2.5600    -1.4460 H     1 <1>   0.0800 
 35 H        2.6830     0.8390    -1.5590 H     1 <1>   0.0800 
 36 H       -3.4860     0.6090    -2.3010 H     1 <1>   0.1500 
 37 H        3.5260     2.5890     0.7550 H     1 <1>   0.0800 
 38 H       -2.9490     3.1900     0.4790 H     1 <1>   0.0800 
 39 H       -3.2490     1.6230     1.2210 H     1 <1>   0.0800 
 40 H       -4.0400     2.0470    -0.3020 H     1 <1>   0.0800 
 41 H       -3.6010    -1.7860    -2.8980 H     1 <1>   0.1500 
 42 H       -1.8600    -5.6330    -1.6030 H     1 <1>   0.0800 
 43 H       -1.9030    -4.7290    -0.0930 H     1 <1>   0.0800 
 44 H       -0.5630    -4.5030    -1.2330 H     1 <1>   0.0800 
 45 H        5.3400     3.7900     0.2000 H     1 <1>   0.3700 
 46 H        7.1670     4.4540    -1.0190 H     1 <1>   0.0800 
 47 H        6.9160     3.1270    -2.1360 H     1 <1>   0.0800 
 48 H        8.0980     1.5910    -0.7190 H     1 <1>   0.0800 
 49 H        8.1680     2.7690     0.5990 H     1 <1>   0.0800 
 50 H       11.3430     2.9590    -0.9970 H     1 <1>   0.0800 
 51 H       10.4350     1.4570    -0.8770 H     1 <1>   0.0800 
 52 H       10.5530     2.5400     0.5190 H     1 <1>   0.0800 
@<TRIPOS>BOND
  1   1   2  2   
  2   1   3  2   
  3   1   4  am  
  4   1   5  1   
  5   4   6  1   
  6   4   7  1   
  7   5   8  ar  
  8   5   9  ar  
  9   6  10  1   
 10   6  27  1   
 11   6  28  1   
 12   7  11  1   
 13   7  29  1   
 14   7  30  1   
 15   8  12  1   
 16   8  13  ar  
 17   9  14  ar  
 18   9  31  1   
 19  10  15  1   
 20  10  32  1   
 21  10  33  1   
 22  11  15  1   
 23  11  34  1   
 24  11  35  1   
 25  12  16  1   
 26  13  17  ar  
 27  13  36  1   
 28  14  17  ar  
 29  14  18  1   
 30  15  19  1   
 31  15  37  1   
 32  16  38  1   
 33  16  39  1   
 34  16  40  1   
 35  17  41  1   
 36  18  20  1   
 37  19  21  2   
 38  19  22  am  
 39  20  42  1   
 40  20  43  1   
 41  20  44  1   
 42  22  23  1   
 43  22  45  1   
 44  23  24  1   
 45  23  46  1   
 46  23  47  1   
 47  24  25  1   
 48  24  48  1   
 49  24  49  1   
 50  25  26  1   
 51  26  50  1   
 52  26  51  1   
 53  26  52  1   
@<TRIPOS>SUBSTRUCTURE
  1 ****   4 GROUP 4 **** **** 0

# MOE 2024.06 (io_trps.svl 2023.06)
