@<TRIPOS>MOLECULE
6-(Butyl-phenyl-amino)-3-methyl-1H-pyrimidine-2,4-dione
39 40 1 0 0 
SMALL
USER_CHARGES


@<TRIPOS>ATOM
  1 O        0.3690     0.8650     0.1180 O.2   1 <1>  -0.5700 
  2 C        1.4560     1.4060     0.1430 C.2   1 <1>   0.6900 
  3 N        1.6070     2.7730     0.0500 N.am  1 <1>  -0.4200 
  4 N        2.5640     0.6240     0.2650 N.am  1 <1>  -0.5390 
  5 C        2.8790     3.3220     0.0890 C.2   1 <1>   0.6160 
  6 C        0.4220     3.6670    -0.0750 C.3   1 <1>   0.0600 
  7 C        3.8460     1.1150     0.3030 C.2   1 <1>   0.2090 
  8 O        3.0170     4.5350     0.0180 O.2   1 <1>  -0.5700 
  9 C        3.9930     2.4650     0.2130 C.2   1 <1>  -0.1360 
 10 N        4.8940     0.2150     0.4220 N.pl3 1 <1>  -0.5690 
 11 C        6.2270     0.5980     0.2250 C.ar  1 <1>   0.1000 
 12 C        4.6850    -1.2110     0.7960 C.3   1 <1>   0.2090 
 13 C        7.0890     0.7520     1.3040 C.ar  1 <1>  -0.1500 
 14 C        6.7060     0.8350    -1.0570 C.ar  1 <1>  -0.1500 
 15 C        4.4710    -2.0560    -0.4640 C.3   1 <1>  -0.1600 
 16 C        8.4050     1.1310     1.1050 C.ar  1 <1>  -0.1500 
 17 C        8.0210     1.2140    -1.2590 C.ar  1 <1>  -0.1500 
 18 C        4.1910    -3.5230    -0.1120 C.3   1 <1>  -0.1600 
 19 C        8.8730     1.3610    -0.1780 C.ar  1 <1>  -0.1500 
 20 C        3.9800    -4.3590    -1.3770 C.3   1 <1>  -0.2400 
 21 H        2.3910    -0.3760     0.2770 H     1 <1>   0.3700 
 22 H       -0.4650     3.1030    -0.3060 H     1 <1>   0.0800 
 23 H        0.5890     4.3820    -0.8620 H     1 <1>   0.0800 
 24 H        0.2730     4.1940     0.8510 H     1 <1>   0.0800 
 25 H        4.9570     2.9310     0.2350 H     1 <1>   0.1500 
 26 H        3.8420    -1.2950     1.4590 H     1 <1>   0.0800 
 27 H        5.5520    -1.5710     1.3240 H     1 <1>   0.0800 
 28 H        6.7220     0.5790     2.2980 H     1 <1>   0.1500 
 29 H        6.0400     0.7190    -1.8920 H     1 <1>   0.1500 
 30 H        5.3560    -1.9990    -1.0740 H     1 <1>   0.0800 
 31 H        3.6450    -1.6610    -1.0290 H     1 <1>   0.0800 
 32 H        9.0650     1.2480     1.9470 H     1 <1>   0.1500 
 33 H        8.3820     1.3950    -2.2570 H     1 <1>   0.1500 
 34 H        3.3100    -3.5900     0.5050 H     1 <1>   0.0800 
 35 H        5.0210    -3.9280     0.4430 H     1 <1>   0.0800 
 36 H        9.8960     1.6560    -0.3340 H     1 <1>   0.1500 
 37 H        3.1420    -3.9880    -1.9400 H     1 <1>   0.0800 
 38 H        3.7870    -5.3840    -1.1130 H     1 <1>   0.0800 
 39 H        4.8570    -4.3280    -2.0000 H     1 <1>   0.0800 
@<TRIPOS>BOND
  1   1   2  2   
  2   2   3  am  
  3   2   4  am  
  4   3   5  am  
  5   3   6  1   
  6   4   7  1   
  7   4  21  1   
  8   5   8  2   
  9   5   9  1   
 10   6  22  1   
 11   6  23  1   
 12   6  24  1   
 13   7   9  2   
 14   7  10  1   
 15   9  25  1   
 16  10  11  1   
 17  10  12  1   
 18  11  13  ar  
 19  11  14  ar  
 20  12  15  1   
 21  12  26  1   
 22  12  27  1   
 23  13  16  ar  
 24  13  28  1   
 25  14  17  ar  
 26  14  29  1   
 27  15  18  1   
 28  15  30  1   
 29  15  31  1   
 30  16  19  ar  
 31  16  32  1   
 32  17  19  ar  
 33  17  33  1   
 34  18  20  1   
 35  18  34  1   
 36  18  35  1   
 37  19  36  1   
 38  20  37  1   
 39  20  38  1   
 40  20  39  1   
@<TRIPOS>SUBSTRUCTURE
  1 ****   7 GROUP 4 **** **** 0

# MOE 2024.06 (io_trps.svl 2023.06)
