@<TRIPOS>MOLECULE
6-Methyl-8-(4-methyl-piperazin-1-yl)-[1,2,4]triazolo[4,3-b]pyridazine
34 36 1 0 0 
SMALL
USER_CHARGES


@<TRIPOS>ATOM
  1 N       -0.0890     0.1410    -0.2950 N.2   1 <1>  -0.6520 
  2 N       -0.8560     1.0110    -1.0430 N.pl3 1 <1>   0.5050 
  3 C        0.7000     0.7100     0.5570 C.2   1 <1>   0.3750 
  4 C       -0.8450     2.3610    -0.9530 C.2   1 <1>   0.1410 
  5 C       -1.7600     0.7940    -1.9950 C.2   1 <1>   0.0360 
  6 C        0.7960     2.1060     0.7370 C.2   1 <1>  -0.1360 
  7 C        1.5740    -0.1790     1.4150 C.3   1 <1>  -0.1790 
  8 N       -1.6930     2.8960    -1.8050 N.2   1 <1>  -0.3380 
  9 C        0.0320     2.9600    -0.0080 C.2   1 <1>   0.1450 
 10 N       -2.2670     1.8940    -2.4580 N.2   1 <1>  -0.3380 
 11 N        0.1120     4.3420     0.1550 N.pl3 1 <1>  -0.8380 
 12 C       -1.1380     4.9640     0.7070 C.3   1 <1>   0.2090 
 13 C        0.6740     5.0640    -1.0360 C.3   1 <1>   0.2090 
 14 C       -1.0090     6.4900     0.8930 C.3   1 <1>   0.3430 
 15 C        0.7670     6.5880    -0.8150 C.3   1 <1>   0.3430 
 16 N       -0.5430     7.1800    -0.3620 N.4   1 <1>  -0.9590 
 17 C       -0.4430     8.6580    -0.1730 C.3   1 <1>   0.2630 
 18 H       -2.0170    -0.1960    -2.3200 H     1 <1>   0.1500 
 19 H        1.4790     2.4910     1.4700 H     1 <1>   0.1500 
 20 H        2.6100     0.0470     1.2400 H     1 <1>   0.0800 
 21 H        1.4040    -1.2140     1.1770 H     1 <1>   0.0800 
 22 H        1.3470    -0.0240     2.4530 H     1 <1>   0.0800 
 23 H       -1.3610     4.5130     1.6590 H     1 <1>   0.0800 
 24 H       -1.9680     4.7600     0.0520 H     1 <1>   0.0800 
 25 H        0.0620     4.8720    -1.9010 H     1 <1>   0.0800 
 26 H        1.6580     4.6800    -1.2450 H     1 <1>   0.0800 
 27 H       -0.3060     6.6740     1.6890 H     1 <1>   0.0800 
 28 H       -1.9640     6.8860     1.1960 H     1 <1>   0.0800 
 29 H        1.0820     7.0550    -1.7340 H     1 <1>   0.0800 
 30 H        1.5240     6.7760    -0.0720 H     1 <1>   0.0800 
 31 H       -1.2380     6.9760    -1.0970 H     1 <1>   0.4500 
 32 H        0.2810     8.8900     0.5920 H     1 <1>   0.0800 
 33 H       -1.3970     9.0640     0.1200 H     1 <1>   0.0800 
 34 H       -0.1370     9.1330    -1.0920 H     1 <1>   0.0800 
@<TRIPOS>BOND
  1   1   2  1   
  2   1   3  2   
  3   2   4  1   
  4   2   5  1   
  5   3   6  1   
  6   3   7  1   
  7   4   8  2   
  8   4   9  1   
  9   5  10  2   
 10   5  18  1   
 11   6   9  2   
 12   6  19  1   
 13   7  20  1   
 14   7  21  1   
 15   7  22  1   
 16   8  10  1   
 17   9  11  1   
 18  11  12  1   
 19  11  13  1   
 20  12  14  1   
 21  12  23  1   
 22  12  24  1   
 23  13  15  1   
 24  13  25  1   
 25  13  26  1   
 26  14  16  1   
 27  14  27  1   
 28  14  28  1   
 29  15  16  1   
 30  15  29  1   
 31  15  30  1   
 32  16  17  1   
 33  16  31  1   
 34  17  32  1   
 35  17  33  1   
 36  17  34  1   
@<TRIPOS>SUBSTRUCTURE
  1 ****   9 GROUP 4 **** **** 0

# MOE 2024.06 (io_trps.svl 2023.06)
