@<TRIPOS>MOLECULE
4-Isobutyrylamino-N-(5-isopropyl-[1,3,4]thiadiazol-2-yl)-benzamide
43 44 1 0 0 
SMALL
USER_CHARGES


@<TRIPOS>ATOM
  1 S       -0.4990    -0.0830     0.9440 S.3   1 <1>  -0.0800 
  2 C       -1.7120     0.1360    -0.2740 C.2   1 <1>   0.4420 
  3 C        0.4780     1.0560     0.0800 C.2   1 <1>   0.1980 
  4 N       -1.3450     0.9710    -1.1760 N.2   1 <1>  -0.3380 
  5 N       -2.8670    -0.6040    -0.1270 N.am  1 <1>  -0.4940 
  6 N       -0.0980     1.4920    -0.9680 N.2   1 <1>  -0.3380 
  7 C        1.8540     1.3890     0.6520 C.3   1 <1>   0.1000 
  8 C       -4.0420    -0.5530    -0.8380 C.2   1 <1>   0.5440 
  9 C        2.3910     2.7190     0.1050 C.3   1 <1>  -0.2400 
 10 C        2.8500     0.2610     0.3520 C.3   1 <1>  -0.2400 
 11 O       -4.2520     0.3680    -1.5980 O.2   1 <1>  -0.5700 
 12 C       -5.0400    -1.5840    -0.6380 C.ar  1 <1>   0.0860 
 13 C       -4.6980    -2.9100    -0.3560 C.ar  1 <1>  -0.1500 
 14 C       -6.4010    -1.2890    -0.7190 C.ar  1 <1>  -0.1500 
 15 C       -5.6640    -3.8760    -0.1490 C.ar  1 <1>  -0.1500 
 16 C       -7.3670    -2.2540    -0.5120 C.ar  1 <1>  -0.1500 
 17 C       -7.0190    -3.5700    -0.2220 C.ar  1 <1>   0.1170 
 18 N       -7.9510    -4.5900     0.0060 N.am  1 <1>  -0.5470 
 19 C       -9.2960    -4.6700    -0.2490 C.2   1 <1>   0.5690 
 20 O       -9.9260    -3.7920    -0.7830 O.2   1 <1>  -0.5700 
 21 C      -10.0170    -5.9600     0.1610 C.3   1 <1>  -0.0190 
 22 C      -10.5020    -6.7430    -1.0700 C.3   1 <1>  -0.2400 
 23 C      -11.1990    -5.6760     1.1020 C.3   1 <1>  -0.2400 
 24 H       -2.8590    -1.2550     0.6510 H     1 <1>   0.3700 
 25 H        1.7540     1.4860     1.7190 H     1 <1>   0.0800 
 26 H        2.5180     2.6620    -0.9630 H     1 <1>   0.0800 
 27 H        3.3370     2.9590     0.5550 H     1 <1>   0.0800 
 28 H        1.6970     3.5120     0.3200 H     1 <1>   0.0800 
 29 H        2.9550     0.1320    -0.7110 H     1 <1>   0.0800 
 30 H        2.5080    -0.6650     0.7770 H     1 <1>   0.0800 
 31 H        3.8140     0.4910     0.7690 H     1 <1>   0.0800 
 32 H       -3.6620    -3.1940    -0.3100 H     1 <1>   0.1500 
 33 H       -6.7010    -0.2800    -0.9500 H     1 <1>   0.1500 
 34 H       -5.3630    -4.8860     0.0630 H     1 <1>   0.1500 
 35 H       -8.4020    -1.9700    -0.5780 H     1 <1>   0.1500 
 36 H       -7.5560    -5.4400     0.4010 H     1 <1>   0.3700 
 37 H       -9.3210    -6.5840     0.6930 H     1 <1>   0.0800 
 38 H      -11.2140    -6.1580    -1.6250 H     1 <1>   0.0800 
 39 H      -10.9700    -7.6650    -0.7720 H     1 <1>   0.0800 
 40 H       -9.6740    -6.9710    -1.7170 H     1 <1>   0.0800 
 41 H      -11.9350    -5.0690     0.6040 H     1 <1>   0.0800 
 42 H      -10.8600    -5.1470     1.9760 H     1 <1>   0.0800 
 43 H      -11.6630    -6.5940     1.4150 H     1 <1>   0.0800 
@<TRIPOS>BOND
  1   1   2  1   
  2   1   3  1   
  3   2   4  2   
  4   2   5  1   
  5   3   6  2   
  6   3   7  1   
  7   4   6  1   
  8   5   8  am  
  9   5  24  1   
 10   7   9  1   
 11   7  10  1   
 12   7  25  1   
 13   8  11  2   
 14   8  12  1   
 15   9  26  1   
 16   9  27  1   
 17   9  28  1   
 18  10  29  1   
 19  10  30  1   
 20  10  31  1   
 21  12  13  ar  
 22  12  14  ar  
 23  13  15  ar  
 24  13  32  1   
 25  14  16  ar  
 26  14  33  1   
 27  15  17  ar  
 28  15  34  1   
 29  16  17  ar  
 30  16  35  1   
 31  17  18  1   
 32  18  19  am  
 33  18  36  1   
 34  19  20  2   
 35  19  21  1   
 36  21  22  1   
 37  21  23  1   
 38  21  37  1   
 39  22  38  1   
 40  22  39  1   
 41  22  40  1   
 42  23  41  1   
 43  23  42  1   
 44  23  43  1   
@<TRIPOS>SUBSTRUCTURE
  1 ****  12 GROUP 4 **** **** 0

# MOE 2024.06 (io_trps.svl 2023.06)
