@<TRIPOS>MOLECULE
5-Ethyl-3-methyl-isoxazole-4-carboxylic acid
19 19 1 0 0 
SMALL
USER_CHARGES


@<TRIPOS>ATOM
  1 O       -0.4320    -0.2830    -1.0800 O.co2 1 <1>  -0.9000 
  2 C       -1.5940    -0.0100    -0.7350 C.2   1 <1>   1.0330 
  3 O       -2.0570     1.0980    -1.0570 O.co2 1 <1>  -0.9000 
  4 C       -2.3860    -0.9580     0.0230 C.2   1 <1>  -0.2330 
  5 C       -2.0870    -2.1710     0.5390 C.2   1 <1>  -0.0400 
  6 C       -3.7120    -0.8310     0.4100 C.2   1 <1>   0.1080 
  7 O       -3.1090    -2.7170     1.1620 O.3   1 <1>  -0.0190 
  8 C       -0.7870    -2.9570     0.5040 C.3   1 <1>   0.0200 
  9 N       -4.1000    -1.8610     1.0650 N.2   1 <1>  -0.4100 
 10 C       -4.6160     0.3480     0.1170 C.3   1 <1>  -0.0590 
 11 C       -0.9080    -4.1710    -0.4220 C.3   1 <1>  -0.2400 
 12 H       -0.5480    -3.2790     1.5010 H     1 <1>   0.0800 
 13 H        0.0170    -2.3310     0.1630 H     1 <1>   0.0800 
 14 H       -4.2020     1.2360     0.5600 H     1 <1>   0.0800 
 15 H       -5.5980     0.1770     0.5170 H     1 <1>   0.0800 
 16 H       -4.6840     0.4930    -0.9450 H     1 <1>   0.0800 
 17 H       -1.6940    -4.8210    -0.0830 H     1 <1>   0.0800 
 18 H        0.0180    -4.7160    -0.4400 H     1 <1>   0.0800 
 19 H       -1.1360    -3.8390    -1.4200 H     1 <1>   0.0800 
@<TRIPOS>BOND
  1   1   2  ar  
  2   2   3  ar  
  3   2   4  1   
  4   4   5  2   
  5   4   6  1   
  6   5   7  1   
  7   5   8  1   
  8   6   9  2   
  9   6  10  1   
 10   7   9  1   
 11   8  11  1   
 12   8  12  1   
 13   8  13  1   
 14  10  14  1   
 15  10  15  1   
 16  10  16  1   
 17  11  17  1   
 18  11  18  1   
 19  11  19  1   
@<TRIPOS>SUBSTRUCTURE
  1 ****   4 GROUP 4 **** **** 0

# MOE 2024.06 (io_trps.svl 2023.06)
