@<TRIPOS>MOLECULE
5-Ethyl-4-(3-isopropylsulfanyl-diazirin-1-yl)-6-methyl-pyrimidin-2-ylamine
35 36 1 0 0 
SMALL
USER_CHARGES


@<TRIPOS>ATOM
  1 S        0.0180    -0.2100    -0.2480 S.3   1 <1>  -0.3710 
  2 C       -0.3090     1.5270    -0.4920 C.2   1 <1>   0.9200 
  3 C        1.8320    -0.3620    -0.5430 C.3   1 <1>   0.1500 
  4 N        0.1490     2.6580    -0.7710 N.2   1 <1>  -0.3320 
  5 N       -1.2590     2.6290    -0.5160 N.2   1 <1>   0.1530 
  6 C        2.1130    -1.8330    -0.8380 C.3   1 <1>  -0.2400 
  7 C        2.5550     0.1210     0.7140 C.3   1 <1>  -0.2400 
  8 C       -2.3820     3.3760    -0.4490 C.2   1 <1>   0.5970 
  9 N       -2.1360     4.6600    -0.7290 N.2   1 <1>  -0.6610 
 10 C       -3.7170     2.9270    -0.1260 C.2   1 <1>  -0.1240 
 11 C       -3.1250     5.5010    -0.7110 C.2   1 <1>   0.5500 
 12 C       -4.7120     3.8660    -0.1250 C.2   1 <1>  -0.0380 
 13 C       -4.1640     1.4960     0.2250 C.3   1 <1>  -0.0220 
 14 N       -4.3750     5.1420    -0.4240 N.pl3 1 <1>  -0.5500 
 15 N       -2.8690     6.7680    -0.9920 N.pl3 1 <1>  -0.8500 
 16 C       -6.1970     3.6820     0.1760 C.3   1 <1>  -0.1020 
 17 C       -3.1650     0.3500     0.2560 C.3   1 <1>  -0.2400 
 18 H        2.0810     0.2490    -1.3950 H     1 <1>   0.0800 
 19 H        1.8230    -2.4500    -0.0060 H     1 <1>   0.0800 
 20 H        3.1630    -1.9790    -1.0220 H     1 <1>   0.0800 
 21 H        1.5700    -2.1500    -1.7110 H     1 <1>   0.0800 
 22 H        2.2530    -0.4570     1.5700 H     1 <1>   0.0800 
 23 H        2.3510     1.1600     0.9010 H     1 <1>   0.0800 
 24 H        3.6180     0.0080     0.5890 H     1 <1>   0.0800 
 25 H       -4.9330     1.2130    -0.4760 H     1 <1>   0.0800 
 26 H       -4.6250     1.5280     1.1980 H     1 <1>   0.0800 
 27 H       -5.0840     5.8750    -0.4350 H     1 <1>   0.4000 
 28 H       -1.9110     7.0460    -1.2120 H     1 <1>   0.4000 
 29 H       -3.5560     7.5180    -1.0110 H     1 <1>   0.4000 
 30 H       -6.7790     3.9770    -0.6800 H     1 <1>   0.0800 
 31 H       -6.4780     4.3030     1.0080 H     1 <1>   0.0800 
 32 H       -6.4670     2.6730     0.4190 H     1 <1>   0.0800 
 33 H       -2.7390     0.1950    -0.7180 H     1 <1>   0.0800 
 34 H       -3.6820    -0.5570     0.5220 H     1 <1>   0.0800 
 35 H       -2.4180     0.5190     1.0090 H     1 <1>   0.0800 
@<TRIPOS>BOND
  1   1   2  1   
  2   1   3  1   
  3   2   4  2   
  4   2   5  1   
  5   3   6  1   
  6   3   7  1   
  7   3  18  1   
  8   4   5  1   
  9   5   8  2   
 10   6  19  1   
 11   6  20  1   
 12   6  21  1   
 13   7  22  1   
 14   7  23  1   
 15   7  24  1   
 16   8   9  1   
 17   8  10  1   
 18   9  11  2   
 19  10  12  2   
 20  10  13  1   
 21  11  14  1   
 22  11  15  1   
 23  12  14  1   
 24  12  16  1   
 25  13  17  1   
 26  13  25  1   
 27  13  26  1   
 28  14  27  1   
 29  15  28  1   
 30  15  29  1   
 31  16  30  1   
 32  16  31  1   
 33  16  32  1   
 34  17  33  1   
 35  17  34  1   
 36  17  35  1   
@<TRIPOS>SUBSTRUCTURE
  1 ****   5 GROUP 4 **** **** 0

# MOE 2024.06 (io_trps.svl 2023.06)
