@<TRIPOS>MOLECULE
2-(Benzo[1,3]dioxol-5-yl-methanesulfonyl-amino)-N-tert-butyl-acetamide
42 43 1 0 0 
SMALL
USER_CHARGES


@<TRIPOS>ATOM
  1 S        0.8080     0.2460     1.4750 S.o2  1 <1>   1.3330 
  2 O        2.1230     0.4170     2.0480 O.2   1 <1>  -0.6500 
  3 O        0.6560    -0.4510     0.2240 O.2   1 <1>  -0.6500 
  4 N        0.1430     1.8340     1.3000 N.am  1 <1>  -0.6930 
  5 C       -0.2590    -0.4730     2.7040 C.3   1 <1>  -0.1350 
  6 C       -1.0840     2.0240     0.6740 C.ar  1 <1>   0.1990 
  7 C        1.1220     2.9650     1.2200 C.3   1 <1>   0.2570 
  8 C       -1.2260     1.8280    -0.6980 C.ar  1 <1>  -0.1500 
  9 C       -2.1870     2.4260     1.4330 C.ar  1 <1>  -0.1500 
 10 C        1.9800     2.9620    -0.0500 C.2   1 <1>   0.5690 
 11 C       -2.4670     2.0320    -1.2630 C.ar  1 <1>   0.0830 
 12 C       -3.4300     2.6270     0.8470 C.ar  1 <1>  -0.1500 
 13 O        1.7570     3.7990    -0.8930 O.2   1 <1>  -0.5700 
 14 N        2.9580     2.0230    -0.1760 N.am  1 <1>  -0.7300 
 15 O       -2.8270     1.9010    -2.5450 O.3   1 <1>  -0.3630 
 16 C       -3.5380     2.4200    -0.5130 C.ar  1 <1>   0.0830 
 17 C        3.7360     1.6550    -1.3570 C.3   1 <1>   0.3000 
 18 C       -4.2120     2.2330    -2.6170 C.3   1 <1>   0.4000 
 19 O       -4.6240     2.5510    -1.2880 O.3   1 <1>  -0.3630 
 20 C        4.5900     0.4570    -0.9510 C.3   1 <1>  -0.2400 
 21 C        2.7870     1.2480    -2.4860 C.3   1 <1>  -0.2400 
 22 C        4.6350     2.8200    -1.7690 C.3   1 <1>  -0.2400 
 23 H        0.0620    -1.4700     2.9310 H     1 <1>   0.0800 
 24 H       -1.2670    -0.5120     2.3400 H     1 <1>   0.0800 
 25 H       -0.2360     0.1100     3.6030 H     1 <1>   0.0800 
 26 H        1.7720     2.9380     2.0750 H     1 <1>   0.0800 
 27 H        0.5830     3.8950     1.2530 H     1 <1>   0.0800 
 28 H       -0.3930     1.5250    -1.3060 H     1 <1>   0.1500 
 29 H       -2.0640     2.5830     2.4880 H     1 <1>   0.1500 
 30 H       -4.2860     2.9360     1.4190 H     1 <1>   0.1500 
 31 H        3.0480     1.3330     0.5810 H     1 <1>   0.3700 
 32 H       -4.7670     1.3840    -2.9740 H     1 <1>   0.0800 
 33 H       -4.3430     3.0910    -3.2510 H     1 <1>   0.0800 
 34 H        3.9650    -0.3640    -0.6460 H     1 <1>   0.0800 
 35 H        5.2480     0.7190    -0.1420 H     1 <1>   0.0800 
 36 H        5.1900     0.1310    -1.7820 H     1 <1>   0.0800 
 37 H        3.3470     0.8960    -3.3320 H     1 <1>   0.0800 
 38 H        2.1960     2.0870    -2.8060 H     1 <1>   0.0800 
 39 H        2.1300     0.4620    -2.1580 H     1 <1>   0.0800 
 40 H        5.2630     2.5290    -2.5920 H     1 <1>   0.0800 
 41 H        5.2610     3.1190    -0.9490 H     1 <1>   0.0800 
 42 H        4.0450     3.6610    -2.0840 H     1 <1>   0.0800 
@<TRIPOS>BOND
  1   1   2  2   
  2   1   3  2   
  3   1   4  am  
  4   1   5  1   
  5   4   6  1   
  6   4   7  1   
  7   5  23  1   
  8   5  24  1   
  9   5  25  1   
 10   6   8  ar  
 11   6   9  ar  
 12   7  10  1   
 13   7  26  1   
 14   7  27  1   
 15   8  11  ar  
 16   8  28  1   
 17   9  12  ar  
 18   9  29  1   
 19  10  13  2   
 20  10  14  am  
 21  11  15  1   
 22  11  16  ar  
 23  12  16  ar  
 24  12  30  1   
 25  14  17  1   
 26  14  31  1   
 27  15  18  1   
 28  16  19  1   
 29  17  20  1   
 30  17  21  1   
 31  17  22  1   
 32  18  19  1   
 33  18  32  1   
 34  18  33  1   
 35  20  34  1   
 36  20  35  1   
 37  20  36  1   
 38  21  37  1   
 39  21  38  1   
 40  21  39  1   
 41  22  40  1   
 42  22  41  1   
 43  22  42  1   
@<TRIPOS>SUBSTRUCTURE
  1 ****   8 GROUP 4 **** **** 0

# MOE 2024.06 (io_trps.svl 2023.06)
