@<TRIPOS>MOLECULE
1-(2,3-Dihydro-indol-1-yl)-2-(1-methyl-1H-tetrazol-5-ylsulfanyl)-ethanone
32 34 1 0 0 
SMALL
USER_CHARGES


@<TRIPOS>ATOM
  1 S       -0.1600     0.5580     0.1750 S.3   1 <1>  -0.2860 
  2 C        0.6270     1.9700    -0.6120 C.2   1 <1>   0.2420 
  3 C       -1.4640     0.0020    -1.0320 C.3   1 <1>   0.1310 
  4 N        0.3280     2.4290    -1.7630 N.2   1 <1>  -0.3380 
  5 N        1.5870     2.6710    -0.0420 N.pl3 1 <1>   0.3140 
  6 C       -2.8560     0.2010    -0.4470 C.2   1 <1>   0.5690 
  7 N        1.1380     3.4740    -1.9200 N.2   1 <1>   0.0000 
  8 N        1.8980     3.6310    -0.8900 N.2   1 <1>  -0.4180 
  9 C        2.2260     2.4930     1.2700 C.3   1 <1>   0.0160 
 10 O       -3.3970    -0.7860    -0.0100 O.2   1 <1>  -0.5700 
 11 N       -3.4550     1.4480    -0.4520 N.am  1 <1>  -0.4770 
 12 C       -4.7240     1.8100     0.0250 C.ar  1 <1>   0.1170 
 13 C       -2.8070     2.6680    -1.0170 C.3   1 <1>   0.1400 
 14 C       -5.0090     3.1330    -0.2410 C.ar  1 <1>  -0.1430 
 15 C       -5.6670     1.0410     0.6980 C.ar  1 <1>  -0.1500 
 16 C       -3.8630     3.7810    -0.9710 C.3   1 <1>  -0.0170 
 17 C       -6.2030     3.7140     0.1410 C.ar  1 <1>  -0.1500 
 18 C       -6.8690     1.6080     1.0880 C.ar  1 <1>  -0.1500 
 19 C       -7.1380     2.9410     0.8110 C.ar  1 <1>  -0.1500 
 20 H       -1.2910    -1.0450    -1.2030 H     1 <1>   0.0800 
 21 H       -1.3410     0.5320    -1.9540 H     1 <1>   0.0800 
 22 H        1.4790     2.5500     2.0390 H     1 <1>   0.0800 
 23 H        2.9570     3.2660     1.4180 H     1 <1>   0.0800 
 24 H        2.7070     1.5320     1.3020 H     1 <1>   0.0800 
 25 H       -2.4860     2.4950    -2.0290 H     1 <1>   0.0800 
 26 H       -1.9680     2.9420    -0.4030 H     1 <1>   0.0800 
 27 H       -5.4690     0.0090     0.9200 H     1 <1>   0.1500 
 28 H       -4.1590     4.0650    -1.9650 H     1 <1>   0.0800 
 29 H       -3.4940     4.6400    -0.4410 H     1 <1>   0.0800 
 30 H       -6.4050     4.7470    -0.0760 H     1 <1>   0.1500 
 31 H       -7.5960     1.0110     1.6080 H     1 <1>   0.1500 
 32 H       -8.0740     3.3740     1.1170 H     1 <1>   0.1500 
@<TRIPOS>BOND
  1   1   2  1   
  2   1   3  1   
  3   2   4  2   
  4   2   5  1   
  5   3   6  1   
  6   3  20  1   
  7   3  21  1   
  8   4   7  1   
  9   5   8  1   
 10   5   9  1   
 11   6  10  2   
 12   6  11  am  
 13   7   8  2   
 14   9  22  1   
 15   9  23  1   
 16   9  24  1   
 17  11  12  1   
 18  11  13  1   
 19  12  14  ar  
 20  12  15  ar  
 21  13  16  1   
 22  13  25  1   
 23  13  26  1   
 24  14  16  1   
 25  14  17  ar  
 26  15  18  ar  
 27  15  27  1   
 28  16  28  1   
 29  16  29  1   
 30  17  19  ar  
 31  17  30  1   
 32  18  19  ar  
 33  18  31  1   
 34  19  32  1   
@<TRIPOS>SUBSTRUCTURE
  1 ****  13 GROUP 4 **** **** 0

# MOE 2024.06 (io_trps.svl 2023.06)
