@<TRIPOS>MOLECULE
(2,6-Dimethyl-morpholin-4-yl)-[5-(naphthalen-2-yloxymethyl)-furan-2-yl]-methanon
50 53 1 0 0 
SMALL
USER_CHARGES


@<TRIPOS>ATOM
  1 O        0.3400     0.4810     0.0850 O.2   1 <1>  -0.5700 
  2 C        0.9580     1.5320     0.1340 C.2   1 <1>   0.7150 
  3 N        0.2690     2.6780     0.4960 N.am  1 <1>  -0.6600 
  4 C        2.3720     1.5160    -0.1980 C.2   1 <1>   0.0550 
  5 C        0.8210     4.0550     0.2940 C.3   1 <1>   0.1400 
  6 C       -1.1790     2.6500     0.8700 C.3   1 <1>   0.1400 
  7 O        3.2080     2.4890     0.1600 O.3   1 <1>  -0.2800 
  8 C        3.0890     0.5800    -0.8800 C.2   1 <1>  -0.1500 
  9 C       -0.2630     5.1510     0.3720 C.3   1 <1>   0.2000 
 10 C       -2.0240     3.5880    -0.0280 C.3   1 <1>   0.2000 
 11 C        4.4130     2.2150    -0.2860 C.2   1 <1>  -0.0400 
 12 C        4.4070     1.0340    -0.9410 C.2   1 <1>  -0.1500 
 13 O       -1.3720     4.7790    -0.3890 O.3   1 <1>  -0.5600 
 14 C        0.2300     6.4870    -0.1760 C.3   1 <1>  -0.2400 
 15 C       -3.3430     3.9800     0.6350 C.3   1 <1>  -0.2400 
 16 C        5.5400     3.1950    -0.0130 C.3   1 <1>   0.3000 
 17 O        5.2620     4.4110    -0.6750 O.3   1 <1>  -0.3630 
 18 C        6.0710     5.4870    -0.5400 C.ar  1 <1>   0.0820 
 19 C        7.2370     5.5040     0.1890 C.ar  1 <1>  -0.1500 
 20 C        5.6560     6.6480    -1.2050 C.ar  1 <1>  -0.1500 
 21 C        8.0230     6.6700     0.2820 C.ar  1 <1>   0.0000 
 22 C        6.3990     7.7920    -1.1300 C.ar  1 <1>  -0.1500 
 23 C        7.5970     7.8370    -0.3890 C.ar  1 <1>   0.0000 
 24 C        9.2220     6.7180     1.0230 C.ar  1 <1>  -0.1500 
 25 C        8.3840     9.0020    -0.2920 C.ar  1 <1>  -0.1500 
 26 C        9.9670     7.8630     1.0990 C.ar  1 <1>  -0.1500 
 27 C        9.5430     9.0180     0.4340 C.ar  1 <1>  -0.1500 
 28 H        1.2940     4.1040    -0.6720 H     1 <1>   0.0800 
 29 H        1.5700     4.2520     1.0400 H     1 <1>   0.0800 
 30 H       -1.2700     2.9600     1.8960 H     1 <1>   0.0800 
 31 H       -1.5800     1.6540     0.8060 H     1 <1>   0.0800 
 32 H        2.7170    -0.3390    -1.3000 H     1 <1>   0.1500 
 33 H       -0.5840     5.2810     1.3920 H     1 <1>   0.0800 
 34 H       -2.2370     3.0710    -0.9480 H     1 <1>   0.0800 
 35 H        5.2220     0.5240    -1.4220 H     1 <1>   0.1500 
 36 H        0.5140     6.3840    -1.2080 H     1 <1>   0.0800 
 37 H        1.0820     6.8250     0.3850 H     1 <1>   0.0800 
 38 H       -0.5480     7.2240    -0.0940 H     1 <1>   0.0800 
 39 H       -3.1610     4.5280     1.5410 H     1 <1>   0.0800 
 40 H       -3.9130     3.1000     0.8700 H     1 <1>   0.0800 
 41 H       -3.9200     4.5890    -0.0390 H     1 <1>   0.0800 
 42 H        6.4720     2.8120    -0.3880 H     1 <1>   0.0800 
 43 H        5.6100     3.3880     1.0420 H     1 <1>   0.0800 
 44 H        7.5910     4.6360     0.7100 H     1 <1>   0.1500 
 45 H        4.7420     6.6110    -1.7700 H     1 <1>   0.1500 
 46 H        6.0770     8.6820    -1.6410 H     1 <1>   0.1500 
 47 H        9.5460     5.8290     1.5330 H     1 <1>   0.1500 
 48 H        8.0540     9.8870    -0.8060 H     1 <1>   0.1500 
 49 H       10.8810     7.8920     1.6660 H     1 <1>   0.1500 
 50 H       10.1400     9.9110     0.5030 H     1 <1>   0.1500 
@<TRIPOS>BOND
  1   1   2  2   
  2   2   3  am  
  3   2   4  1   
  4   3   5  1   
  5   3   6  1   
  6   4   7  1   
  7   4   8  2   
  8   5   9  1   
  9   5  28  1   
 10   5  29  1   
 11   6  10  1   
 12   6  30  1   
 13   6  31  1   
 14   7  11  1   
 15   8  12  1   
 16   8  32  1   
 17   9  13  1   
 18   9  14  1   
 19   9  33  1   
 20  10  13  1   
 21  10  15  1   
 22  10  34  1   
 23  11  12  2   
 24  11  16  1   
 25  12  35  1   
 26  14  36  1   
 27  14  37  1   
 28  14  38  1   
 29  15  39  1   
 30  15  40  1   
 31  15  41  1   
 32  16  17  1   
 33  16  42  1   
 34  16  43  1   
 35  17  18  1   
 36  18  19  ar  
 37  18  20  ar  
 38  19  21  ar  
 39  19  44  1   
 40  20  22  ar  
 41  20  45  1   
 42  21  23  ar  
 43  21  24  ar  
 44  22  23  ar  
 45  22  46  1   
 46  23  25  ar  
 47  24  26  ar  
 48  24  47  1   
 49  25  27  ar  
 50  25  48  1   
 51  26  27  ar  
 52  26  49  1   
 53  27  50  1   
@<TRIPOS>SUBSTRUCTURE
  1 ****  17 GROUP 4 **** **** 0

# MOE 2024.06 (io_trps.svl 2023.06)
