@<TRIPOS>MOLECULE
4-Pyrimidin-2-yl-piperazine-1-carboxylic acid (3-trifluoromethyl-phenyl)-amide
41 43 1 0 0 
SMALL
USER_CHARGES


@<TRIPOS>ATOM
  1 F       -2.4620    -0.6430     1.7800 F     1 <1>  -0.3400 
  2 C       -1.9820    -0.1230     0.6580 C.3   1 <1>   1.1640 
  3 F       -1.2370    -1.0680     0.0970 F     1 <1>  -0.3400 
  4 F       -1.1450     0.8410     1.0220 F     1 <1>  -0.3400 
  5 C       -3.1040     0.3910    -0.2560 C.ar  1 <1>  -0.1440 
  6 C       -3.7400     1.5930     0.0340 C.ar  1 <1>  -0.1500 
  7 C       -3.5190    -0.3290    -1.3730 C.ar  1 <1>  -0.1500 
  8 C       -4.7760     2.0730    -0.7550 C.ar  1 <1>   0.1170 
  9 C       -4.5450     0.1440    -2.1730 C.ar  1 <1>  -0.1500 
 10 N       -5.4070     3.2710    -0.4150 N.am  1 <1>  -0.5470 
 11 C       -5.1680     1.3370    -1.8650 C.ar  1 <1>  -0.1500 
 12 C       -6.7140     3.6310    -0.5360 C.2   1 <1>   0.6900 
 13 O       -6.9440     4.8090    -0.7170 O.2   1 <1>  -0.5700 
 14 N       -7.7380     2.7220    -0.4510 N.am  1 <1>  -0.6600 
 15 C       -9.1200     3.0530    -0.9280 C.3   1 <1>   0.1400 
 16 C       -7.6580     1.4550     0.3510 C.3   1 <1>   0.1400 
 17 C      -10.1510     2.9990     0.2130 C.3   1 <1>   0.2090 
 18 C       -8.7030     1.4360     1.4780 C.3   1 <1>   0.2090 
 19 N      -10.0680     1.6870     0.9270 N.pl3 1 <1>  -0.8380 
 20 C      -10.9390     0.6590     0.6400 C.ar  1 <1>   0.7200 
 21 N      -12.1750     0.9990     0.2770 N.ar  1 <1>  -0.6200 
 22 N      -10.4700    -0.5850     0.7410 N.ar  1 <1>  -0.6200 
 23 C      -12.9980     0.0130     0.0140 C.ar  1 <1>   0.1600 
 24 C      -11.3140    -1.5500     0.4710 C.ar  1 <1>   0.1600 
 25 C      -12.6120    -1.3020     0.0970 C.ar  1 <1>  -0.1500 
 26 H       -3.4410     2.1690     0.8940 H     1 <1>   0.1500 
 27 H       -3.0500    -1.2650    -1.6300 H     1 <1>   0.1500 
 28 H       -4.8580    -0.4190    -3.0360 H     1 <1>   0.1500 
 29 H       -4.8110     4.0920    -0.3300 H     1 <1>   0.3700 
 30 H       -5.9670     1.7020    -2.4870 H     1 <1>   0.1500 
 31 H       -9.4060     2.3430    -1.6840 H     1 <1>   0.0800 
 32 H       -9.1410     4.0320    -1.3750 H     1 <1>   0.0800 
 33 H       -6.6870     1.3450     0.7960 H     1 <1>   0.0800 
 34 H       -7.8270     0.6140    -0.2980 H     1 <1>   0.0800 
 35 H      -11.1350     3.1620    -0.1900 H     1 <1>   0.0800 
 36 H       -9.9510     3.7950     0.9090 H     1 <1>   0.0800 
 37 H       -8.4660     2.2060     2.1910 H     1 <1>   0.0800 
 38 H       -8.6630     0.4960     1.9990 H     1 <1>   0.0800 
 39 H      -14.0050     0.2610    -0.2750 H     1 <1>   0.1500 
 40 H      -10.9610    -2.5640     0.5490 H     1 <1>   0.1500 
 41 H      -13.2950    -2.1010    -0.1200 H     1 <1>   0.1500 
@<TRIPOS>BOND
  1   1   2  1   
  2   2   3  1   
  3   2   4  1   
  4   2   5  1   
  5   5   6  ar  
  6   5   7  ar  
  7   6   8  ar  
  8   6  26  1   
  9   7   9  ar  
 10   7  27  1   
 11   8  10  1   
 12   8  11  ar  
 13   9  11  ar  
 14   9  28  1   
 15  10  12  am  
 16  10  29  1   
 17  11  30  1   
 18  12  13  2   
 19  12  14  am  
 20  14  15  1   
 21  14  16  1   
 22  15  17  1   
 23  15  31  1   
 24  15  32  1   
 25  16  18  1   
 26  16  33  1   
 27  16  34  1   
 28  17  19  1   
 29  17  35  1   
 30  17  36  1   
 31  18  19  1   
 32  18  37  1   
 33  18  38  1   
 34  19  20  1   
 35  20  21  ar  
 36  20  22  ar  
 37  21  23  ar  
 38  22  24  ar  
 39  23  25  ar  
 40  23  39  1   
 41  24  25  ar  
 42  24  40  1   
 43  25  41  1   
@<TRIPOS>SUBSTRUCTURE
  1 ****  16 GROUP 4 **** **** 0

# MOE 2024.06 (io_trps.svl 2023.06)
