@<TRIPOS>MOLECULE
3-tert-Butyl-6-(4-chloro-phenyl)-[1,2,4]triazolo[3,4-b][1,3,4]thiadiazole
32 34 1 0 0 
SMALL
USER_CHARGES


@<TRIPOS>ATOM
  1 CL       0.0230     0.2620    -0.2230 Cl    1 <1>  -0.1770 
  2 C        1.7110     0.6950    -0.2290 C.ar  1 <1>   0.1770 
  3 C        2.0760     2.0210    -0.1080 C.ar  1 <1>  -0.1500 
  4 C        2.6680    -0.2930    -0.3550 C.ar  1 <1>  -0.1500 
  5 C        3.4180     2.3560    -0.1130 C.ar  1 <1>  -0.1500 
  6 C        4.0080     0.0540    -0.3590 C.ar  1 <1>  -0.1500 
  7 C        4.4220     1.3880    -0.2390 C.ar  1 <1>   0.0860 
  8 C        5.8150     1.7940    -0.2390 C.2   1 <1>   0.5050 
  9 S        7.0790     0.5410    -0.4000 S.3   1 <1>  -0.1970 
 10 N        6.3000     2.9800    -0.1350 N.2   1 <1>  -0.6520 
 11 C        8.2960     1.7880    -0.3120 C.2   1 <1>   0.2430 
 12 N        7.6970     2.9560    -0.1780 N.pl3 1 <1>   0.5050 
 13 N        9.5780     1.8280    -0.3450 N.2   1 <1>  -0.3380 
 14 C        8.7510     3.7950    -0.1250 C.2   1 <1>   0.0060 
 15 N        9.8710     3.1360    -0.2230 N.2   1 <1>  -0.3380 
 16 C        8.6080     5.3160     0.0300 C.3   1 <1>   0.1800 
 17 C        9.9890     5.9940     0.0580 C.3   1 <1>  -0.2400 
 18 C        7.8870     5.6460     1.3450 C.3   1 <1>  -0.2400 
 19 C        7.8140     5.8950    -1.1500 C.3   1 <1>  -0.2400 
 20 H        1.3160     2.7760    -0.0110 H     1 <1>   0.1500 
 21 H        2.3610    -1.3200    -0.4480 H     1 <1>   0.1500 
 22 H        3.6950     3.3930    -0.0190 H     1 <1>   0.1500 
 23 H        4.7300    -0.7370    -0.4590 H     1 <1>   0.1500 
 24 H       10.5730     5.6180     0.8790 H     1 <1>   0.0800 
 25 H        9.8920     7.0590     0.1670 H     1 <1>   0.0800 
 26 H       10.5230     5.7910    -0.8540 H     1 <1>   0.0800 
 27 H        8.4230     5.2240     2.1770 H     1 <1>   0.0800 
 28 H        6.8880     5.2480     1.3470 H     1 <1>   0.0800 
 29 H        7.8230     6.7110     1.4850 H     1 <1>   0.0800 
 30 H        8.2990     5.6480    -2.0780 H     1 <1>   0.0800 
 31 H        7.7490     6.9650    -1.0730 H     1 <1>   0.0800 
 32 H        6.8150     5.4990    -1.1730 H     1 <1>   0.0800 
@<TRIPOS>BOND
  1   1   2  1   
  2   2   3  ar  
  3   2   4  ar  
  4   3   5  ar  
  5   3  20  1   
  6   4   6  ar  
  7   4  21  1   
  8   5   7  ar  
  9   5  22  1   
 10   6   7  ar  
 11   6  23  1   
 12   7   8  1   
 13   8   9  1   
 14   8  10  2   
 15   9  11  1   
 16  10  12  1   
 17  11  12  1   
 18  11  13  2   
 19  12  14  1   
 20  13  15  1   
 21  14  15  2   
 22  14  16  1   
 23  16  17  1   
 24  16  18  1   
 25  16  19  1   
 26  17  24  1   
 27  17  25  1   
 28  17  26  1   
 29  18  27  1   
 30  18  28  1   
 31  18  29  1   
 32  19  30  1   
 33  19  31  1   
 34  19  32  1   
@<TRIPOS>SUBSTRUCTURE
  1 ****  10 GROUP 4 **** **** 0

# MOE 2024.06 (io_trps.svl 2023.06)
