@<TRIPOS>MOLECULE
8-Azepan-1-yl-3-methyl-7-(3-phenoxy-propyl)-3,7-dihydro-purine-2,6-dione
57 60 1 0 0 
SMALL
USER_CHARGES


@<TRIPOS>ATOM
  1 O        1.1350     1.3010     0.9680 O.2   1 <1>  -0.5740 
  2 C        2.3050     1.5800     0.8520 C.2   1 <1>   0.6870 
  3 N        3.2620     0.6370     0.5060 N.am  1 <1>  -0.4410 
  4 N        2.6930     2.8690     1.0710 N.am  1 <1>  -0.4940 
  5 C        4.5770     1.0640     0.4020 C.2   1 <1>   0.4210 
  6 C        2.8880    -0.7870     0.2590 C.3   1 <1>   0.0530 
  7 C        3.9830     3.3040     0.9730 C.2   1 <1>   0.7000 
  8 N        5.6630     0.3190     0.0750 N.pl3 1 <1>  -0.7030 
  9 C        4.9820     2.3340     0.6210 C.2   1 <1>   0.2710 
 10 O        4.2180     4.4770     1.1840 O.2   1 <1>  -0.5740 
 11 C        6.7490     1.0960     0.1030 C.cat 1 <1>   1.0690 
 12 N        6.3780     2.3520     0.4170 N.pl3 1 <1>  -0.7670 
 13 N        7.9820     0.6080    -0.1680 N.pl3 1 <1>  -0.5960 
 14 C        7.1290     3.6400     0.3880 C.3   1 <1>   0.3490 
 15 C        9.2320     1.2170     0.3790 C.3   1 <1>   0.1610 
 16 C        8.1600    -0.6090    -1.0180 C.3   1 <1>   0.1610 
 17 C        6.9530     4.3080    -0.9780 C.3   1 <1>  -0.1660 
 18 C       10.3480     0.2210     0.7210 C.3   1 <1>  -0.1660 
 19 C        8.1330    -1.8870    -0.1680 C.3   1 <1>  -0.1660 
 20 C        7.9560     5.4480    -1.1750 C.3   1 <1>   0.1130 
 21 C        9.8860    -1.0120     1.5130 C.3   1 <1>  -0.1660 
 22 C        9.4320    -2.1590     0.6010 C.3   1 <1>  -0.1660 
 23 O        7.9840     6.2250    -0.0020 O.3   1 <1>  -0.3680 
 24 C        8.8610     7.2500     0.1400 C.ar  1 <1>   0.0760 
 25 C        9.7430     7.6590    -0.8570 C.ar  1 <1>  -0.1560 
 26 C        8.8600     7.9080     1.3600 C.ar  1 <1>  -0.1560 
 27 C       10.6140     8.7090    -0.6220 C.ar  1 <1>  -0.1560 
 28 C        9.7310     8.9580     1.5920 C.ar  1 <1>  -0.1560 
 29 C       10.6090     9.3580     0.6010 C.ar  1 <1>  -0.1560 
 30 H        1.9690     3.5400     1.3230 H     1 <1>   0.3650 
 31 H        1.8240    -0.9270     0.3520 H     1 <1>   0.0730 
 32 H        3.3760    -1.4230     0.9770 H     1 <1>   0.0730 
 33 H        3.1800    -1.0760    -0.7350 H     1 <1>   0.0730 
 34 H        5.6930    -0.6790    -0.1020 H     1 <1>   0.4450 
 35 H        8.1740     3.4910     0.5750 H     1 <1>   0.0730 
 36 H        6.7640     4.2930     1.1640 H     1 <1>   0.0730 
 37 H        8.9910     1.7310     1.2940 H     1 <1>   0.0730 
 38 H        9.6140     1.9370    -0.3250 H     1 <1>   0.0730 
 39 H        9.0830    -0.5480    -1.5700 H     1 <1>   0.0730 
 40 H        7.3670    -0.6540    -1.7450 H     1 <1>   0.0730 
 41 H        5.9590     4.7110    -1.0590 H     1 <1>   0.0730 
 42 H        7.0980     3.5950    -1.7690 H     1 <1>   0.0730 
 43 H       11.0700     0.7500     1.3200 H     1 <1>   0.0730 
 44 H       10.8680    -0.0790    -0.1720 H     1 <1>   0.0730 
 45 H        7.9730    -2.7220    -0.8280 H     1 <1>   0.0730 
 46 H        7.3100    -1.8680     0.5230 H     1 <1>   0.0730 
 47 H        7.6680     6.0790    -1.9990 H     1 <1>   0.0730 
 48 H        8.9460     5.0560    -1.3390 H     1 <1>   0.0730 
 49 H        9.1110    -0.7520     2.2130 H     1 <1>   0.0730 
 50 H       10.7240    -1.3710     2.0870 H     1 <1>   0.0730 
 51 H       10.2200    -2.3870    -0.0980 H     1 <1>   0.0730 
 52 H        9.2900    -3.0390     1.2060 H     1 <1>   0.0730 
 53 H        9.7680     7.1810    -1.8170 H     1 <1>   0.1440 
 54 H        8.1740     7.5970     2.1270 H     1 <1>   0.1440 
 55 H       11.2960     9.0250    -1.3920 H     1 <1>   0.1440 
 56 H        9.7240     9.4640     2.5420 H     1 <1>   0.1440 
 57 H       11.2870    10.1740     0.7800 H     1 <1>   0.1440 
@<TRIPOS>BOND
  1   1   2  2   
  2   2   3  am  
  3   2   4  am  
  4   3   5  1   
  5   3   6  1   
  6   4   7  am  
  7   4  30  1   
  8   5   8  1   
  9   5   9  2   
 10   6  31  1   
 11   6  32  1   
 12   6  33  1   
 13   7   9  1   
 14   7  10  2   
 15   8  11  ar  
 16   8  34  1   
 17   9  12  1   
 18  11  12  ar  
 19  11  13  ar  
 20  12  14  1   
 21  13  15  1   
 22  13  16  1   
 23  14  17  1   
 24  14  35  1   
 25  14  36  1   
 26  15  18  1   
 27  15  37  1   
 28  15  38  1   
 29  16  19  1   
 30  16  39  1   
 31  16  40  1   
 32  17  20  1   
 33  17  41  1   
 34  17  42  1   
 35  18  21  1   
 36  18  43  1   
 37  18  44  1   
 38  19  22  1   
 39  19  45  1   
 40  19  46  1   
 41  20  23  1   
 42  20  47  1   
 43  20  48  1   
 44  21  22  1   
 45  21  49  1   
 46  21  50  1   
 47  22  51  1   
 48  22  52  1   
 49  23  24  1   
 50  24  25  ar  
 51  24  26  ar  
 52  25  27  ar  
 53  25  53  1   
 54  26  28  ar  
 55  26  54  1   
 56  27  29  ar  
 57  27  55  1   
 58  28  29  ar  
 59  28  56  1   
 60  29  57  1   
@<TRIPOS>SUBSTRUCTURE
  1 ****  14 GROUP 4 **** **** 0

# MOE 2024.06 (io_trps.svl 2023.06)
