@<TRIPOS>MOLECULE
4-Acetylamino-5-chloro-N-[5-(2-ethoxy-ethyl)-[1,3,4]thiadiazol-2-yl]-2-methoxy-b
45 46 1 0 0 
SMALL
USER_CHARGES


@<TRIPOS>ATOM
  1 CL      -1.5910     0.8170     2.9480 Cl    1 <1>  -0.1770 
  2 C       -1.2040     2.0350     1.7490 C.ar  1 <1>   0.1770 
  3 C       -1.9220     2.0650     0.5580 C.ar  1 <1>   0.1170 
  4 C       -0.1960     2.9310     2.0230 C.ar  1 <1>  -0.1500 
  5 N       -2.9380     1.1160     0.3410 N.am  1 <1>  -0.5470 
  6 C       -1.5760     3.0560    -0.3520 C.ar  1 <1>  -0.1500 
  7 C        0.1670     3.9300     1.1130 C.ar  1 <1>   0.0860 
  8 C       -3.7270     0.8390    -0.7400 C.2   1 <1>   0.5690 
  9 C       -0.5590     3.9740    -0.0970 C.ar  1 <1>   0.0820 
 10 C        1.2480     4.8380     1.4710 C.2   1 <1>   0.5440 
 11 O       -3.6670     1.4240    -1.7900 O.2   1 <1>  -0.5700 
 12 C       -4.7270    -0.2800    -0.5940 C.3   1 <1>  -0.1790 
 13 O       -0.2510     4.9330    -1.0120 O.3   1 <1>  -0.3620 
 14 O        1.6660     4.8600     2.6110 O.2   1 <1>  -0.5700 
 15 N        1.8160     5.6730     0.5430 N.am  1 <1>  -0.4940 
 16 C       -0.9510     5.0930    -2.2320 C.3   1 <1>   0.0400 
 17 C        2.8860     6.5370     0.6300 C.2   1 <1>   0.4420 
 18 S        3.2170     7.4910    -0.7790 S.3   1 <1>  -0.0800 
 19 N        3.7170     6.7750     1.5790 N.2   1 <1>  -0.3380 
 20 C        4.5420     8.1860     0.0880 C.2   1 <1>   0.1980 
 21 N        4.6580     7.7160     1.2640 N.2   1 <1>  -0.3380 
 22 C        5.3770     9.2310    -0.6250 C.3   1 <1>   0.0200 
 23 C        6.5010     9.7510     0.2690 C.3   1 <1>   0.1200 
 24 O        7.2200    10.7000    -0.4500 O.3   1 <1>  -0.5600 
 25 C        8.2780    11.2540     0.2570 C.3   1 <1>   0.1200 
 26 C        8.9600    12.2650    -0.6560 C.3   1 <1>  -0.2400 
 27 H        0.3210     2.8520     2.9650 H     1 <1>   0.1500 
 28 H       -3.0990     0.5030     1.1430 H     1 <1>   0.3700 
 29 H       -2.1200     3.1010    -1.2720 H     1 <1>   0.1500 
 30 H       -4.2180    -1.2030    -0.3910 H     1 <1>   0.0800 
 31 H       -5.2870    -0.3870    -1.5050 H     1 <1>   0.0800 
 32 H       -5.4090    -0.0590     0.2070 H     1 <1>   0.0800 
 33 H        1.3360     5.6620    -0.3570 H     1 <1>   0.3700 
 34 H       -0.5270     5.9300    -2.7590 H     1 <1>   0.0800 
 35 H       -1.9890     5.2860    -2.0200 H     1 <1>   0.0800 
 36 H       -0.8420     4.1990    -2.8210 H     1 <1>   0.0800 
 37 H        4.7430    10.0510    -0.9070 H     1 <1>   0.0800 
 38 H        5.8030     8.7940    -1.5090 H     1 <1>   0.0800 
 39 H        7.1620     8.9470     0.5470 H     1 <1>   0.0800 
 40 H        6.0950    10.2140     1.1530 H     1 <1>   0.0800 
 41 H        8.9620    10.4690     0.5340 H     1 <1>   0.0800 
 42 H        7.8930    11.7370     1.1390 H     1 <1>   0.0800 
 43 H        9.3270    11.7740    -1.5390 H     1 <1>   0.0800 
 44 H        9.7880    12.7180    -0.1440 H     1 <1>   0.0800 
 45 H        8.2640    13.0350    -0.9370 H     1 <1>   0.0800 
@<TRIPOS>BOND
  1   1   2  1   
  2   2   3  ar  
  3   2   4  ar  
  4   3   5  1   
  5   3   6  ar  
  6   4   7  ar  
  7   4  27  1   
  8   5   8  am  
  9   5  28  1   
 10   6   9  ar  
 11   6  29  1   
 12   7   9  ar  
 13   7  10  1   
 14   8  11  2   
 15   8  12  1   
 16   9  13  1   
 17  10  14  2   
 18  10  15  am  
 19  12  30  1   
 20  12  31  1   
 21  12  32  1   
 22  13  16  1   
 23  15  17  1   
 24  15  33  1   
 25  16  34  1   
 26  16  35  1   
 27  16  36  1   
 28  17  18  1   
 29  17  19  2   
 30  18  20  1   
 31  19  21  1   
 32  20  21  2   
 33  20  22  1   
 34  22  23  1   
 35  22  37  1   
 36  22  38  1   
 37  23  24  1   
 38  23  39  1   
 39  23  40  1   
 40  24  25  1   
 41  25  26  1   
 42  25  41  1   
 43  25  42  1   
 44  26  43  1   
 45  26  44  1   
 46  26  45  1   
@<TRIPOS>SUBSTRUCTURE
  1 ****  15 GROUP 4 **** **** 0

# MOE 2024.06 (io_trps.svl 2023.06)
