@<TRIPOS>MOLECULE
(4-Chloro-phenyl)-morpholin-4-yl-acetic acid
31 32 1 0 0 
SMALL
USER_CHARGES


@<TRIPOS>ATOM
  1 CL      -0.1060     0.0510     0.9630 Cl    1 <1>  -0.1770 
  2 C        1.5840     0.4170     0.7340 C.ar  1 <1>   0.1770 
  3 C        2.0520     0.7040    -0.5330 C.ar  1 <1>  -0.1500 
  4 C        2.4310     0.4160     1.8250 C.ar  1 <1>  -0.1500 
  5 C        3.3930     0.9980    -0.7100 C.ar  1 <1>  -0.1500 
  6 C        3.7720     0.7100     1.6420 C.ar  1 <1>  -0.1500 
  7 C        4.2650     1.0080     0.3750 C.ar  1 <1>  -0.1430 
  8 C        5.7550     1.3430     0.2300 C.3   1 <1>   0.4610 
  9 N        5.9530     2.7910     0.6470 N.4   1 <1>  -0.9590 
 10 C        6.4210     0.9750    -1.1260 C.2   1 <1>   0.9060 
 11 C        5.2400     3.7270    -0.2840 C.3   1 <1>   0.3430 
 12 C        7.4180     3.1240     0.6500 C.3   1 <1>   0.3430 
 13 O        6.1170     1.6080    -2.1490 O.co2 1 <1>  -0.9000 
 14 O        7.3750     0.1930    -1.1000 O.co2 1 <1>  -0.9000 
 15 C        5.4860     5.2020     0.1080 C.3   1 <1>   0.1200 
 16 C        7.6660     4.6430     0.7980 C.3   1 <1>   0.1200 
 17 O        6.4780     5.3280     1.0960 O.3   1 <1>  -0.5600 
 18 H        1.3760     0.6920    -1.3690 H     1 <1>   0.1500 
 19 H        2.0420     0.1840     2.8000 H     1 <1>   0.1500 
 20 H        3.7440     1.2130    -1.7080 H     1 <1>   0.1500 
 21 H        4.4280     0.6990     2.4960 H     1 <1>   0.1500 
 22 H        6.2730     0.7270     0.9430 H     1 <1>   0.0800 
 23 H        5.5730     2.9460     1.5840 H     1 <1>   0.4500 
 24 H        4.1820     3.5240    -0.2840 H     1 <1>   0.0800 
 25 H        5.5930     3.5780    -1.2920 H     1 <1>   0.0800 
 26 H        7.8730     2.7940    -0.2710 H     1 <1>   0.0800 
 27 H        7.9100     2.6010     1.4530 H     1 <1>   0.0800 
 28 H        4.5810     5.6330     0.4990 H     1 <1>   0.0800 
 29 H        5.7840     5.7710    -0.7560 H     1 <1>   0.0800 
 30 H        8.0750     5.0450    -0.1130 H     1 <1>   0.0800 
 31 H        8.3670     4.8290     1.5930 H     1 <1>   0.0800 
@<TRIPOS>BOND
  1   1   2  1   
  2   2   3  ar  
  3   2   4  ar  
  4   3   5  ar  
  5   3  18  1   
  6   4   6  ar  
  7   4  19  1   
  8   5   7  ar  
  9   5  20  1   
 10   6   7  ar  
 11   6  21  1   
 12   7   8  1   
 13   8   9  1   
 14   8  10  1   
 15   8  22  1   
 16   9  11  1   
 17   9  12  1   
 18   9  23  1   
 19  10  13  ar  
 20  10  14  ar  
 21  11  15  1   
 22  11  24  1   
 23  11  25  1   
 24  12  16  1   
 25  12  26  1   
 26  12  27  1   
 27  15  17  1   
 28  15  28  1   
 29  15  29  1   
 30  16  17  1   
 31  16  30  1   
 32  16  31  1   
@<TRIPOS>SUBSTRUCTURE
  1 ****   7 GROUP 4 **** **** 0

# MOE 2024.06 (io_trps.svl 2023.06)
