@<TRIPOS>MOLECULE
1-(2,5-Dimethoxy-benzenesulfonyl)-piperidine-4-carboxylic acid (furan-2-ylmethyl
52 54 1 0 0 
SMALL
USER_CHARGES


@<TRIPOS>ATOM
  1 S        0.1320    -0.8080    -1.3670 S.o2  1 <1>   1.4470 
  2 O        0.0180    -2.2090    -1.7160 O.2   1 <1>  -0.6500 
  3 O        0.1320     0.1490    -2.4540 O.2   1 <1>  -0.6500 
  4 N        1.6200    -0.6370    -0.5670 N.am  1 <1>  -0.8490 
  5 C       -1.1190    -0.4530    -0.1010 C.ar  1 <1>  -0.0090 
  6 C        1.9040     0.7620    -0.2270 C.3   1 <1>   0.1960 
  7 C        2.7030    -1.2280    -1.3600 C.3   1 <1>   0.1960 
  8 C       -1.6010     0.8330     0.1400 C.ar  1 <1>   0.0820 
  9 C       -1.6170    -1.4870     0.6850 C.ar  1 <1>  -0.1500 
 10 C        3.2020     0.8700     0.5780 C.3   1 <1>  -0.1600 
 11 C        4.0250    -1.1820    -0.5900 C.3   1 <1>  -0.1600 
 12 O       -1.1320     1.8870    -0.5580 O.3   1 <1>  -0.3620 
 13 C       -2.5500     1.0730     1.1230 C.ar  1 <1>  -0.1500 
 14 C       -2.5740    -1.2580     1.6690 C.ar  1 <1>   0.0820 
 15 C        4.3850     0.2560    -0.1850 C.3   1 <1>  -0.0190 
 16 C       -1.9710     2.3880    -1.5760 C.3   1 <1>   0.0400 
 17 C       -3.0370     0.0280     1.8820 C.ar  1 <1>  -0.1500 
 18 O       -3.0970    -2.2330     2.4560 O.3   1 <1>  -0.3630 
 19 C        5.6740     0.3120     0.6330 C.2   1 <1>   0.5690 
 20 C       -2.6900    -3.5780     2.3210 C.3   1 <1>   0.0400 
 21 O        5.7650    -0.3160     1.6600 O.2   1 <1>  -0.5700 
 22 N        6.6970     1.0760     0.1840 N.am  1 <1>  -0.7300 
 23 C        7.9710     1.2740     0.8980 C.3   1 <1>   0.3200 
 24 C        8.4680     2.6790     0.6160 C.2   1 <1>  -0.0400 
 25 O        8.7120     3.0360    -0.6320 O.3   1 <1>  -0.2800 
 26 C        8.7220     3.7050     1.4580 C.2   1 <1>  -0.1500 
 27 C        9.1270     4.2870    -0.6150 C.2   1 <1>  -0.0100 
 28 C        9.1560     4.7620     0.6480 C.2   1 <1>  -0.1500 
 29 H        1.1050     1.1600     0.3740 H     1 <1>   0.0800 
 30 H        1.9770     1.3540    -1.1260 H     1 <1>   0.0800 
 31 H        2.7980    -0.7020    -2.2960 H     1 <1>   0.0800 
 32 H        2.4730    -2.2590    -1.5780 H     1 <1>   0.0800 
 33 H       -1.2400    -2.4780     0.5100 H     1 <1>   0.1500 
 34 H        3.0700     0.3610     1.5180 H     1 <1>   0.0800 
 35 H        3.4040     1.9040     0.7910 H     1 <1>   0.0800 
 36 H        4.8080    -1.5940    -1.2010 H     1 <1>   0.0800 
 37 H        3.9360    -1.7990     0.2880 H     1 <1>   0.0800 
 38 H       -2.8990     2.0750     1.2950 H     1 <1>   0.1500 
 39 H        4.5330     0.8260    -1.0840 H     1 <1>   0.0800 
 40 H       -1.4530     3.1870    -2.0750 H     1 <1>   0.0800 
 41 H       -2.8820     2.7530    -1.1360 H     1 <1>   0.0800 
 42 H       -2.1800     1.5970    -2.2760 H     1 <1>   0.0800 
 43 H       -3.7740     0.2010     2.6460 H     1 <1>   0.1500 
 44 H       -3.2330    -4.1650     3.0390 H     1 <1>   0.0800 
 45 H       -1.6340    -3.6460     2.5190 H     1 <1>   0.0800 
 46 H       -2.9180    -3.9150     1.3250 H     1 <1>   0.0800 
 47 H        6.6220     1.6330    -0.6690 H     1 <1>   0.3700 
 48 H        8.6930     0.5570     0.5470 H     1 <1>   0.0800 
 49 H        7.8290     1.1340     1.9560 H     1 <1>   0.0800 
 50 H        8.6220     3.7410     2.5280 H     1 <1>   0.1500 
 51 H        9.3830     4.7630    -1.5460 H     1 <1>   0.1500 
 52 H        9.4460     5.7380     0.9940 H     1 <1>   0.1500 
@<TRIPOS>BOND
  1   1   2  2   
  2   1   3  2   
  3   1   4  am  
  4   1   5  1   
  5   4   6  1   
  6   4   7  1   
  7   5   8  ar  
  8   5   9  ar  
  9   6  10  1   
 10   6  29  1   
 11   6  30  1   
 12   7  11  1   
 13   7  31  1   
 14   7  32  1   
 15   8  12  1   
 16   8  13  ar  
 17   9  14  ar  
 18   9  33  1   
 19  10  15  1   
 20  10  34  1   
 21  10  35  1   
 22  11  15  1   
 23  11  36  1   
 24  11  37  1   
 25  12  16  1   
 26  13  17  ar  
 27  13  38  1   
 28  14  17  ar  
 29  14  18  1   
 30  15  19  1   
 31  15  39  1   
 32  16  40  1   
 33  16  41  1   
 34  16  42  1   
 35  17  43  1   
 36  18  20  1   
 37  19  21  2   
 38  19  22  am  
 39  20  44  1   
 40  20  45  1   
 41  20  46  1   
 42  22  23  1   
 43  22  47  1   
 44  23  24  1   
 45  23  48  1   
 46  23  49  1   
 47  24  25  1   
 48  24  26  2   
 49  25  27  1   
 50  26  28  1   
 51  26  50  1   
 52  27  28  2   
 53  27  51  1   
 54  28  52  1   
@<TRIPOS>SUBSTRUCTURE
  1 ****   6 GROUP 4 **** **** 0

# MOE 2024.06 (io_trps.svl 2023.06)
