@<TRIPOS>MOLECULE
3-(2,5-Dimethyl-benzyl)-1,7-dimethyl-8-(tetrahydro-furan-2-ylmethyl)-1H,8H-imida
59 63 1 0 0 
SMALL
USER_CHARGES


@<TRIPOS>ATOM
  1 O        1.4650    -0.1910     2.9170 O.2   1 <1>  -0.5740 
  2 C        2.0810     0.6800     2.3360 C.2   1 <1>   0.6870 
  3 N        1.4640     1.8820     2.0200 N.am  1 <1>  -0.4250 
  4 N        3.4140     0.4740     2.0030 N.am  1 <1>  -0.4410 
  5 C        2.1950     2.9610     1.5520 C.2   1 <1>   0.7000 
  6 C       -0.0240     1.9560     1.9930 C.3   1 <1>   0.2780 
  7 C        4.1150     1.5250     1.4460 C.2   1 <1>   0.4210 
  8 C        4.0790    -0.8330     2.2810 C.3   1 <1>   0.0540 
  9 O        1.7020     4.0740     1.4730 O.2   1 <1>  -0.5740 
 10 C        3.5590     2.7380     1.2090 C.2   1 <1>   0.2720 
 11 C       -0.5230     1.6300     0.5850 C.ar  1 <1>  -0.1500 
 12 N        5.4200     1.5510     1.0570 N.pl3 1 <1>  -0.7030 
 13 N        4.5700     3.5290     0.6380 N.pl3 1 <1>  -0.6320 
 14 C       -1.1090     2.5770    -0.2540 C.ar  1 <1>  -0.1500 
 15 C       -0.3820     0.3240     0.1330 C.ar  1 <1>  -0.1560 
 16 C        5.6540     2.7670     0.5660 C.cat 1 <1>   1.0690 
 17 C        4.9050     4.7560     0.1030 C.2   1 <1>   0.2230 
 18 C       -1.5060     2.2020    -1.5290 C.ar  1 <1>  -0.1560 
 19 C       -1.3540     4.0220     0.1640 C.3   1 <1>  -0.1030 
 20 C       -0.7840    -0.0470    -1.1380 C.ar  1 <1>  -0.1500 
 21 N        6.6880     3.4240     0.0190 N.pl3 1 <1>  -0.5710 
 22 C        6.2030     4.6930    -0.2740 C.2   1 <1>   0.1590 
 23 C       -1.3430     0.9030    -1.9710 C.ar  1 <1>  -0.1560 
 24 C       -0.6180    -1.4780    -1.6160 C.3   1 <1>  -0.1030 
 25 C        8.0920     2.9260    -0.1360 C.3   1 <1>   0.1620 
 26 C        7.0580     5.7720    -0.9110 C.3   1 <1>  -0.1080 
 27 C        8.2010     1.6000    -0.9140 C.3   1 <1>   0.1940 
 28 O        7.5510     0.5650    -0.2400 O.3   1 <1>  -0.5640 
 29 C        9.6320     1.1030    -1.0620 C.3   1 <1>  -0.1660 
 30 C        8.0460    -0.6650    -0.6780 C.3   1 <1>   0.1140 
 31 C        9.4650    -0.4030    -1.1750 C.3   1 <1>  -0.1660 
 32 H       -0.3410     2.9330     2.3080 H     1 <1>   0.0740 
 33 H       -0.4470     1.2520     2.6880 H     1 <1>   0.0740 
 34 H        3.3540    -1.6290     2.2850 H     1 <1>   0.0740 
 35 H        4.5580    -0.7980     3.2440 H     1 <1>   0.0740 
 36 H        4.8120    -1.0520     1.5240 H     1 <1>   0.0740 
 37 H        6.1120     0.8030     0.9060 H     1 <1>   0.4460 
 38 H        0.0400    -0.4270     0.7780 H     1 <1>   0.1440 
 39 H        4.1990     5.5700     0.0360 H     1 <1>   0.1440 
 40 H       -1.9530     2.9210    -2.1920 H     1 <1>   0.1440 
 41 H       -1.8310     4.0630     1.1260 H     1 <1>   0.0740 
 42 H       -2.0000     4.5180    -0.5380 H     1 <1>   0.0740 
 43 H       -0.4280     4.5640     0.2010 H     1 <1>   0.0740 
 44 H       -1.6590     0.6340    -2.9630 H     1 <1>   0.1440 
 45 H        0.2780    -1.5640    -2.2040 H     1 <1>   0.0740 
 46 H       -1.4590    -1.7670    -2.2190 H     1 <1>   0.0740 
 47 H       -0.5520    -2.1520    -0.7810 H     1 <1>   0.0740 
 48 H        8.5320     2.8000     0.8380 H     1 <1>   0.0740 
 49 H        8.6760     3.6650    -0.6570 H     1 <1>   0.0740 
 50 H        7.8980     6.0030    -0.2810 H     1 <1>   0.0740 
 51 H        6.4830     6.6700    -1.0540 H     1 <1>   0.0740 
 52 H        7.4180     5.4440    -1.8700 H     1 <1>   0.0740 
 53 H        7.7500     1.6950    -1.8880 H     1 <1>   0.0740 
 54 H       10.2050     1.3410    -0.1820 H     1 <1>   0.0740 
 55 H       10.1170     1.5260    -1.9240 H     1 <1>   0.0740 
 56 H        7.4170    -1.0200    -1.4770 H     1 <1>   0.0740 
 57 H        8.0300    -1.3610     0.1430 H     1 <1>   0.0740 
 58 H       10.1900    -0.9270    -0.5770 H     1 <1>   0.0740 
 59 H        9.5580    -0.7290    -2.1970 H     1 <1>   0.0740 
@<TRIPOS>BOND
  1   1   2  2   
  2   2   3  am  
  3   2   4  am  
  4   3   5  am  
  5   3   6  1   
  6   4   7  1   
  7   4   8  1   
  8   5   9  2   
  9   5  10  1   
 10   6  11  1   
 11   6  32  1   
 12   6  33  1   
 13   7  10  2   
 14   7  12  1   
 15   8  34  1   
 16   8  35  1   
 17   8  36  1   
 18  10  13  1   
 19  11  14  ar  
 20  11  15  ar  
 21  12  16  ar  
 22  12  37  1   
 23  13  16  ar  
 24  13  17  1   
 25  14  18  ar  
 26  14  19  1   
 27  15  20  ar  
 28  15  38  1   
 29  16  21  ar  
 30  17  22  2   
 31  17  39  1   
 32  18  23  ar  
 33  18  40  1   
 34  19  41  1   
 35  19  42  1   
 36  19  43  1   
 37  20  23  ar  
 38  20  24  1   
 39  21  22  1   
 40  21  25  1   
 41  22  26  1   
 42  23  44  1   
 43  24  45  1   
 44  24  46  1   
 45  24  47  1   
 46  25  27  1   
 47  25  48  1   
 48  25  49  1   
 49  26  50  1   
 50  26  51  1   
 51  26  52  1   
 52  27  28  1   
 53  27  29  1   
 54  27  53  1   
 55  28  30  1   
 56  29  31  1   
 57  29  54  1   
 58  29  55  1   
 59  30  31  1   
 60  30  56  1   
 61  30  57  1   
 62  31  58  1   
 63  31  59  1   
@<TRIPOS>SUBSTRUCTURE
  1 ****  10 GROUP 4 **** **** 0

# MOE 2024.06 (io_trps.svl 2023.06)
