@<TRIPOS>MOLECULE
N-[1-(3-p-Tolyl-[1,2,4]oxadiazol-5-yl)-ethyl]-isobutyramide
39 40 1 0 0 
SMALL
USER_CHARGES


@<TRIPOS>ATOM
  1 O       -1.0910    -1.0650     0.3730 O.2   1 <1>  -0.5700 
  2 C       -2.1020    -0.6250    -0.1150 C.2   1 <1>   0.5690 
  3 N       -3.3230    -1.0730     0.2620 N.am  1 <1>  -0.7300 
  4 C       -2.0080     0.4630    -1.1870 C.3   1 <1>  -0.0190 
  5 C       -3.5520    -2.1790     1.2130 C.3   1 <1>   0.4000 
  6 C       -2.6810     1.7710    -0.7400 C.3   1 <1>  -0.2400 
  7 C       -2.5960    -0.0040    -2.5300 C.3   1 <1>  -0.2400 
  8 C       -4.3510    -3.2960     0.5350 C.2   1 <1>   0.2980 
  9 C       -4.2610    -1.5940     2.4360 C.3   1 <1>  -0.2400 
 10 O       -3.6930    -4.1410    -0.2160 O.3   1 <1>  -0.0190 
 11 N       -5.6060    -3.4990     0.6050 N.2   1 <1>  -0.5650 
 12 N       -4.6040    -4.9500    -0.6570 N.2   1 <1>  -0.4100 
 13 C       -5.7360    -4.5770    -0.1750 C.2   1 <1>   0.4620 
 14 C       -7.0180    -5.2160    -0.4250 C.ar  1 <1>   0.0540 
 15 C       -7.1230    -6.3210    -1.2710 C.ar  1 <1>  -0.1500 
 16 C       -8.1970    -4.7560     0.1640 C.ar  1 <1>  -0.1500 
 17 C       -8.3380    -6.9350    -1.5160 C.ar  1 <1>  -0.1500 
 18 C       -9.4150    -5.3660    -0.0770 C.ar  1 <1>  -0.1500 
 19 C       -9.4930    -6.4620    -0.9190 C.ar  1 <1>  -0.1440 
 20 C      -10.8290    -7.1320    -1.1860 C.3   1 <1>  -0.0970 
 21 H       -4.1610    -0.7090    -0.1890 H     1 <1>   0.3700 
 22 H       -0.9620     0.6660    -1.3390 H     1 <1>   0.0800 
 23 H       -2.6080    -2.5890     1.5290 H     1 <1>   0.0800 
 24 H       -3.7380     1.6330    -0.6000 H     1 <1>   0.0800 
 25 H       -2.5280     2.5400    -1.4760 H     1 <1>   0.0800 
 26 H       -2.2530     2.1030     0.1900 H     1 <1>   0.0800 
 27 H       -3.6520    -0.1920    -2.4450 H     1 <1>   0.0800 
 28 H       -2.1110    -0.9120    -2.8450 H     1 <1>   0.0800 
 29 H       -2.4390     0.7440    -3.2870 H     1 <1>   0.0800 
 30 H       -5.2060    -1.1640     2.1560 H     1 <1>   0.0800 
 31 H       -3.6440    -0.8420     2.8930 H     1 <1>   0.0800 
 32 H       -4.4410    -2.3720     3.1550 H     1 <1>   0.0800 
 33 H       -6.2380    -6.7080    -1.7460 H     1 <1>   0.1500 
 34 H       -8.1620    -3.9070     0.8230 H     1 <1>   0.1500 
 35 H       -8.3800    -7.7840    -2.1750 H     1 <1>   0.1500 
 36 H      -10.3030    -4.9830     0.3940 H     1 <1>   0.1500 
 37 H      -10.6900    -8.1790    -1.3900 H     1 <1>   0.0800 
 38 H      -11.3020    -6.6730    -2.0350 H     1 <1>   0.0800 
 39 H      -11.4750    -7.0360    -0.3330 H     1 <1>   0.0800 
@<TRIPOS>BOND
  1   1   2  2   
  2   2   3  am  
  3   2   4  1   
  4   3   5  1   
  5   3  21  1   
  6   4   6  1   
  7   4   7  1   
  8   4  22  1   
  9   5   8  1   
 10   5   9  1   
 11   5  23  1   
 12   6  24  1   
 13   6  25  1   
 14   6  26  1   
 15   7  27  1   
 16   7  28  1   
 17   7  29  1   
 18   8  10  1   
 19   8  11  2   
 20   9  30  1   
 21   9  31  1   
 22   9  32  1   
 23  10  12  1   
 24  11  13  1   
 25  12  13  2   
 26  13  14  1   
 27  14  15  ar  
 28  14  16  ar  
 29  15  17  ar  
 30  15  33  1   
 31  16  18  ar  
 32  16  34  1   
 33  17  19  ar  
 34  17  35  1   
 35  18  19  ar  
 36  18  36  1   
 37  19  20  1   
 38  20  37  1   
 39  20  38  1   
 40  20  39  1   
@<TRIPOS>SUBSTRUCTURE
  1 ****  11 GROUP 4 **** **** 0

# MOE 2024.06 (io_trps.svl 2023.06)
