@<TRIPOS>MOLECULE
Ethyl-(4-ethylamino-6-morpholin-4-yl-[1,3,5]triazin-2-yl)-cyanamide
39 40 1 0 0 
SMALL
USER_CHARGES


@<TRIPOS>ATOM
  1 O       -0.4760     0.6170     0.0680 O.3   1 <1>  -0.5600 
  2 C       -1.6510    -0.0030     0.5160 C.3   1 <1>   0.1200 
  3 C       -0.6090     2.0000    -0.1320 C.3   1 <1>   0.1200 
  4 C       -2.8030     0.1900    -0.4880 C.3   1 <1>   0.2090 
  5 C       -1.6930     2.3010    -1.1820 C.3   1 <1>   0.2090 
  6 N       -2.9830     1.6410    -0.8010 N.pl3 1 <1>  -0.8380 
  7 C       -4.1150     2.3390    -0.4470 C.ar  1 <1>   0.7200 
  8 N       -3.9950     3.6280    -0.2780 N.ar  1 <1>  -0.6200 
  9 N       -5.2220     1.6600    -0.3050 N.ar  1 <1>  -0.6200 
 10 C       -5.0980     4.2450     0.0590 C.ar  1 <1>   0.8190 
 11 C       -6.2440     2.3850     0.0300 C.ar  1 <1>   0.7200 
 12 N       -6.2610     3.6720     0.2260 N.ar  1 <1>  -0.6200 
 13 N       -5.0310     5.6100     0.2520 N.pl3 1 <1>  -0.6810 
 14 N       -7.3980     1.6980     0.1770 N.pl3 1 <1>  -0.8690 
 15 C       -3.8350     6.3190     0.0430 C.1   1 <1>   0.6830 
 16 C       -6.1810     6.4150     0.7320 C.3   1 <1>   0.1960 
 17 C       -8.7390     2.3020     0.1520 C.3   1 <1>   0.2090 
 18 N       -2.8870     6.9310    -0.1120 N.1   1 <1>  -0.5570 
 19 C       -6.9840     6.9210    -0.4650 C.3   1 <1>  -0.2400 
 20 C       -9.7650     1.2010     0.3810 C.3   1 <1>  -0.2400 
 21 H       -1.9170     0.4140     1.4710 H     1 <1>   0.0800 
 22 H       -1.4420    -1.0500     0.6420 H     1 <1>   0.0800 
 23 H        0.3410     2.3780    -0.4620 H     1 <1>   0.0800 
 24 H       -0.8600     2.4630     0.8060 H     1 <1>   0.0800 
 25 H       -3.6990    -0.2380    -0.0750 H     1 <1>   0.0800 
 26 H       -2.5760    -0.3410    -1.3960 H     1 <1>   0.0800 
 27 H       -1.3720     1.9180    -2.1350 H     1 <1>   0.0800 
 28 H       -1.8040     3.3650    -1.2850 H     1 <1>   0.0800 
 29 H       -7.3340     0.7350    -0.1500 H     1 <1>   0.4000 
 30 H       -5.8230     7.2520     1.3090 H     1 <1>   0.0800 
 31 H       -6.8100     5.8240     1.3760 H     1 <1>   0.0800 
 32 H       -8.9030     2.7770    -0.8010 H     1 <1>   0.0800 
 33 H       -8.8130     3.0460     0.9280 H     1 <1>   0.0800 
 34 H       -6.3710     7.5400    -1.0950 H     1 <1>   0.0800 
 35 H       -7.8170     7.5050    -0.1200 H     1 <1>   0.0800 
 36 H       -7.3620     6.0920    -1.0360 H     1 <1>   0.0800 
 37 H       -9.7100     0.4680    -0.4040 H     1 <1>   0.0800 
 38 H      -10.7530     1.6240     0.3830 H     1 <1>   0.0800 
 39 H       -9.5950     0.7270     1.3310 H     1 <1>   0.0800 
@<TRIPOS>BOND
  1   1   2  1   
  2   1   3  1   
  3   2   4  1   
  4   2  21  1   
  5   2  22  1   
  6   3   5  1   
  7   3  23  1   
  8   3  24  1   
  9   4   6  1   
 10   4  25  1   
 11   4  26  1   
 12   5   6  1   
 13   5  27  1   
 14   5  28  1   
 15   6   7  1   
 16   7   8  ar  
 17   7   9  ar  
 18   8  10  ar  
 19   9  11  ar  
 20  10  12  ar  
 21  10  13  1   
 22  11  12  ar  
 23  11  14  1   
 24  13  15  1   
 25  13  16  1   
 26  14  17  1   
 27  14  29  1   
 28  15  18  3   
 29  16  19  1   
 30  16  30  1   
 31  16  31  1   
 32  17  20  1   
 33  17  32  1   
 34  17  33  1   
 35  19  34  1   
 36  19  35  1   
 37  19  36  1   
 38  20  37  1   
 39  20  38  1   
 40  20  39  1   
@<TRIPOS>SUBSTRUCTURE
  1 ****   8 GROUP 4 **** **** 0

# MOE 2024.06 (io_trps.svl 2023.06)
