@<TRIPOS>MOLECULE
2-(4-Ethyl-benzylamino)-5-propyl-4H-[1,2,4]triazolo[1,5-a]pyrimidin-7-one
44 46 1 0 0 
SMALL
USER_CHARGES


@<TRIPOS>ATOM
  1 O        0.1760    -0.3970    -1.0410 O.2   1 <1>  -0.5700 
  2 C       -0.1640    -1.5490    -0.8080 C.2   1 <1>   0.5650 
  3 N       -1.4790    -2.0160    -1.0290 N.pl3 1 <1>   0.5610 
  4 C        0.7730    -2.4900    -0.2830 C.2   1 <1>  -0.1360 
  5 N       -2.6040    -1.4230    -1.5010 N.2   1 <1>  -0.7070 
  6 C       -1.8040    -3.2990    -0.7330 C.2   1 <1>   0.2700 
  7 C        0.4320    -3.7770     0.0050 C.2   1 <1>  -0.0380 
  8 C       -3.4520    -2.3870    -1.4520 C.2   1 <1>   0.5990 
  9 N       -3.0320    -3.5630    -0.9790 N.2   1 <1>  -0.5650 
 10 N       -0.8650    -4.1800    -0.2200 N.pl3 1 <1>  -0.5840 
 11 C        1.3640    -4.8480     0.5660 C.3   1 <1>  -0.0220 
 12 N       -4.7500    -2.2750    -1.8540 N.pl3 1 <1>  -0.8520 
 13 C        2.8050    -4.3760     0.8100 C.3   1 <1>  -0.1600 
 14 C       -5.4480    -1.0400    -1.4610 C.3   1 <1>   0.3530 
 15 C        3.6740    -5.5050     1.3720 C.3   1 <1>  -0.2400 
 16 C       -6.7690    -1.4380    -0.8280 C.ar  1 <1>  -0.1430 
 17 C       -7.8850    -1.6610    -1.6180 C.ar  1 <1>  -0.1500 
 18 C       -6.8700    -1.5900     0.5460 C.ar  1 <1>  -0.1500 
 19 C       -9.0890    -2.0260    -1.0410 C.ar  1 <1>  -0.1500 
 20 C       -8.0740    -1.9540     1.1230 C.ar  1 <1>  -0.1500 
 21 C       -9.1910    -2.1750     0.3330 C.ar  1 <1>  -0.1430 
 22 C      -10.5130    -2.5770     0.9670 C.3   1 <1>  -0.0170 
 23 C      -11.3400    -1.3370     1.3150 C.3   1 <1>  -0.2400 
 24 H        1.7640    -2.1040    -0.1330 H     1 <1>   0.1500 
 25 H       -1.1920    -5.1350    -0.0310 H     1 <1>   0.4000 
 26 H        1.3820    -5.6760    -0.1200 H     1 <1>   0.0800 
 27 H        0.9540    -5.2030     1.4960 H     1 <1>   0.0800 
 28 H       -5.2630    -3.0770    -1.4840 H     1 <1>   0.4000 
 29 H        2.8040    -3.5570     1.5090 H     1 <1>   0.0800 
 30 H        3.2340    -4.0330    -0.1160 H     1 <1>   0.0800 
 31 H       -5.6170    -0.4360    -2.3360 H     1 <1>   0.0800 
 32 H       -4.8640    -0.4660    -0.7610 H     1 <1>   0.0800 
 33 H        3.2820    -5.8540     2.3110 H     1 <1>   0.0800 
 34 H        4.6770    -5.1510     1.5340 H     1 <1>   0.0800 
 35 H        3.7140    -6.3320     0.6830 H     1 <1>   0.0800 
 36 H       -7.8190    -1.5550    -2.6870 H     1 <1>   0.1500 
 37 H       -6.0100    -1.4260     1.1730 H     1 <1>   0.1500 
 38 H       -9.9480    -2.1940    -1.6670 H     1 <1>   0.1500 
 39 H       -8.1390    -2.0660     2.1900 H     1 <1>   0.1500 
 40 H      -10.3270    -3.1500     1.8580 H     1 <1>   0.0800 
 41 H      -11.0660    -3.2010     0.2870 H     1 <1>   0.0800 
 42 H      -10.8000    -0.7140     2.0050 H     1 <1>   0.0800 
 43 H      -12.2720    -1.6270     1.7650 H     1 <1>   0.0800 
 44 H      -11.5450    -0.7670     0.4260 H     1 <1>   0.0800 
@<TRIPOS>BOND
  1   1   2  2   
  2   2   3  1   
  3   2   4  1   
  4   3   5  1   
  5   3   6  1   
  6   4   7  2   
  7   4  24  1   
  8   5   8  2   
  9   6   9  2   
 10   6  10  1   
 11   7  10  1   
 12   7  11  1   
 13   8   9  1   
 14   8  12  1   
 15  10  25  1   
 16  11  13  1   
 17  11  26  1   
 18  11  27  1   
 19  12  14  1   
 20  12  28  1   
 21  13  15  1   
 22  13  29  1   
 23  13  30  1   
 24  14  16  1   
 25  14  31  1   
 26  14  32  1   
 27  15  33  1   
 28  15  34  1   
 29  15  35  1   
 30  16  17  ar  
 31  16  18  ar  
 32  17  19  ar  
 33  17  36  1   
 34  18  20  ar  
 35  18  37  1   
 36  19  21  ar  
 37  19  38  1   
 38  20  21  ar  
 39  20  39  1   
 40  21  22  1   
 41  22  23  1   
 42  22  40  1   
 43  22  41  1   
 44  23  42  1   
 45  23  43  1   
 46  23  44  1   
@<TRIPOS>SUBSTRUCTURE
  1 ****   8 GROUP 4 **** **** 0

# MOE 2024.06 (io_trps.svl 2023.06)
