@<TRIPOS>MOLECULE
N-[2-(4-Propionyl-piperazin-1-yl)-ethyl]-propionamide
41 41 1 0 0 
SMALL
USER_CHARGES


@<TRIPOS>ATOM
  1 O       -1.3300    -0.5370    -1.1700 O.2   1 <1>  -0.5700 
  2 C       -1.0350    -1.5490    -0.5820 C.2   1 <1>   0.5690 
  3 N       -1.9610    -2.2020     0.1990 N.am  1 <1>  -0.6600 
  4 C        0.3850    -2.0950    -0.7280 C.3   1 <1>  -0.0990 
  5 C       -3.3110    -1.5900     0.4360 C.3   1 <1>   0.1400 
  6 C       -1.7470    -3.5300     0.8560 C.3   1 <1>   0.1400 
  7 C        1.3780    -1.1360    -1.4080 C.3   1 <1>  -0.2400 
  8 C       -4.4450    -2.5960     0.1770 C.3   1 <1>   0.3430 
  9 C       -2.9260    -4.4880     0.5840 C.3   1 <1>   0.3430 
 10 N       -4.2510    -3.8800     0.9490 N.4   1 <1>  -0.9590 
 11 C       -5.3720    -4.8450     0.6760 C.3   1 <1>   0.3430 
 12 C       -6.7150    -4.4200     1.3130 C.3   1 <1>   0.1400 
 13 N       -7.8280    -4.3920     0.3240 N.am  1 <1>  -0.7300 
 14 C       -7.8280    -3.7290    -0.8610 C.2   1 <1>   0.5690 
 15 O       -6.8430    -3.1580    -1.2580 O.2   1 <1>  -0.5700 
 16 C       -9.0950    -3.7150    -1.6950 C.3   1 <1>  -0.0990 
 17 C      -10.2010    -2.8440    -1.0810 C.3   1 <1>  -0.2400 
 18 H        0.3410    -3.0020    -1.3010 H     1 <1>   0.0800 
 19 H        0.7650    -2.3260     0.2500 H     1 <1>   0.0800 
 20 H       -3.4640    -0.7390    -0.2060 H     1 <1>   0.0800 
 21 H       -3.3640    -1.2360     1.4500 H     1 <1>   0.0800 
 22 H       -1.6370    -3.3830     1.9170 H     1 <1>   0.0800 
 23 H       -0.8460    -3.9930     0.4970 H     1 <1>   0.0800 
 24 H        1.0500    -0.9070    -2.4080 H     1 <1>   0.0800 
 25 H        2.3560    -1.5810    -1.4600 H     1 <1>   0.0800 
 26 H        1.4450    -0.2160    -0.8540 H     1 <1>   0.0800 
 27 H       -4.4790    -2.8080    -0.8800 H     1 <1>   0.0800 
 28 H       -5.3870    -2.1430     0.4400 H     1 <1>   0.0800 
 29 H       -2.7740    -5.3970     1.1430 H     1 <1>   0.0800 
 30 H       -2.9230    -4.7410    -0.4640 H     1 <1>   0.0800 
 31 H       -4.2340    -3.6460     1.9490 H     1 <1>   0.4500 
 32 H       -5.1090    -5.8150     1.0640 H     1 <1>   0.0800 
 33 H       -5.5050    -4.9420    -0.3900 H     1 <1>   0.0800 
 34 H       -6.6330    -3.4450     1.7590 H     1 <1>   0.0800 
 35 H       -6.9670    -5.1230     2.0890 H     1 <1>   0.0800 
 36 H       -8.7160    -4.7980     0.6370 H     1 <1>   0.3700 
 37 H       -9.4480    -4.7240    -1.8100 H     1 <1>   0.0800 
 38 H       -8.8560    -3.3410    -2.6750 H     1 <1>   0.0800 
 39 H      -10.4870    -3.2120    -0.1110 H     1 <1>   0.0800 
 40 H      -11.0690    -2.8470    -1.7170 H     1 <1>   0.0800 
 41 H       -9.8590    -1.8280    -0.9780 H     1 <1>   0.0800 
@<TRIPOS>BOND
  1   1   2  2   
  2   2   3  am  
  3   2   4  1   
  4   3   5  1   
  5   3   6  1   
  6   4   7  1   
  7   4  18  1   
  8   4  19  1   
  9   5   8  1   
 10   5  20  1   
 11   5  21  1   
 12   6   9  1   
 13   6  22  1   
 14   6  23  1   
 15   7  24  1   
 16   7  25  1   
 17   7  26  1   
 18   8  10  1   
 19   8  27  1   
 20   8  28  1   
 21   9  10  1   
 22   9  29  1   
 23   9  30  1   
 24  10  11  1   
 25  10  31  1   
 26  11  12  1   
 27  11  32  1   
 28  11  33  1   
 29  12  13  1   
 30  12  34  1   
 31  12  35  1   
 32  13  14  am  
 33  13  36  1   
 34  14  15  2   
 35  14  16  1   
 36  16  17  1   
 37  16  37  1   
 38  16  38  1   
 39  17  39  1   
 40  17  40  1   
 41  17  41  1   
@<TRIPOS>SUBSTRUCTURE
  1 ****   8 GROUP 4 **** **** 0

# MOE 2024.06 (io_trps.svl 2023.06)
