@<TRIPOS>MOLECULE
[1-(3-Methyl-benzyl)-piperidin-4-yl]-(4-methyl-piperidin-1-yl)-methanone
54 56 1 0 0 
SMALL
USER_CHARGES


@<TRIPOS>ATOM
  1 O        2.0690    -1.4320     2.3380 O.2   1 <1>  -0.5700 
  2 C        2.5650    -1.4730     1.2360 C.2   1 <1>   0.5690 
  3 N        3.4370    -0.5040     0.8040 N.am  1 <1>  -0.6600 
  4 C        2.1840    -2.6710     0.3560 C.3   1 <1>  -0.0190 
  5 C        4.2880    -0.5470    -0.4180 C.3   1 <1>   0.1400 
  6 C        3.6060     0.7620     1.5740 C.3   1 <1>   0.1400 
  7 C        0.6940    -3.0430     0.5080 C.3   1 <1>  -0.1600 
  8 C        3.0660    -3.8850     0.7020 C.3   1 <1>  -0.1600 
  9 C        3.9010     0.6090    -1.3450 C.3   1 <1>  -0.1600 
 10 C        3.2270     1.9510     0.6840 C.3   1 <1>  -0.1600 
 11 C        0.3320    -4.3040    -0.2690 C.3   1 <1>   0.3430 
 12 C        2.6540    -5.1400    -0.0650 C.3   1 <1>   0.3430 
 13 C        4.0310     1.9630    -0.6270 C.3   1 <1>  -0.0800 
 14 N        1.2130    -5.4230     0.1730 N.4   1 <1>  -0.9590 
 15 C        3.5630     3.1040    -1.5370 C.3   1 <1>  -0.2400 
 16 C        0.8010    -6.7220    -0.4260 C.3   1 <1>   0.4860 
 17 C       -0.6060    -7.0450     0.0350 C.ar  1 <1>  -0.1440 
 18 C       -1.6720    -6.9180    -0.8440 C.ar  1 <1>  -0.1500 
 19 C       -0.8390    -7.4610     1.3380 C.ar  1 <1>  -0.1500 
 20 C       -2.9640    -7.1900    -0.4260 C.ar  1 <1>  -0.1440 
 21 C       -2.1290    -7.7320     1.7580 C.ar  1 <1>  -0.1500 
 22 C       -3.1870    -7.5930     0.8790 C.ar  1 <1>  -0.1500 
 23 C       -4.1340    -7.0500    -1.3850 C.3   1 <1>  -0.0970 
 24 H        2.3310    -2.4080    -0.6740 H     1 <1>   0.0800 
 25 H        4.1990    -1.4820    -0.9360 H     1 <1>   0.0800 
 26 H        5.3190    -0.4380    -0.1240 H     1 <1>   0.0800 
 27 H        4.6310     0.8500     1.8910 H     1 <1>   0.0800 
 28 H        2.9850     0.7650     2.4550 H     1 <1>   0.0800 
 29 H        0.0870    -2.2250     0.1590 H     1 <1>   0.0800 
 30 H        0.4480    -3.1970     1.5450 H     1 <1>   0.0800 
 31 H        3.0090    -4.0820     1.7600 H     1 <1>   0.0800 
 32 H        4.0930    -3.6560     0.4780 H     1 <1>   0.0800 
 33 H        2.8900     0.4660    -1.6810 H     1 <1>   0.0800 
 34 H        4.5420     0.5990    -2.2090 H     1 <1>   0.0800 
 35 H        3.4040     2.8630     1.2260 H     1 <1>   0.0800 
 36 H        2.1740     1.8970     0.4720 H     1 <1>   0.0800 
 37 H        0.4560    -4.1300    -1.3260 H     1 <1>   0.0800 
 38 H       -0.7030    -4.5480    -0.0830 H     1 <1>   0.0800 
 39 H        3.2550    -5.9730     0.2650 H     1 <1>   0.0800 
 40 H        2.8270    -4.9910    -1.1190 H     1 <1>   0.0800 
 41 H        5.0690     2.1240    -0.3870 H     1 <1>   0.0800 
 42 H        1.0640    -5.5140     1.1870 H     1 <1>   0.4500 
 43 H        2.5280     2.9810    -1.8010 H     1 <1>   0.0800 
 44 H        4.1480     3.1270    -2.4400 H     1 <1>   0.0800 
 45 H        3.6790     4.0500    -1.0370 H     1 <1>   0.0800 
 46 H        1.4650    -7.5080    -0.1060 H     1 <1>   0.0800 
 47 H        0.8310    -6.6650    -1.5020 H     1 <1>   0.0800 
 48 H       -1.5100    -6.6070    -1.8620 H     1 <1>   0.1500 
 49 H       -0.0310    -7.5830     2.0390 H     1 <1>   0.1500 
 50 H       -2.3140    -8.0540     2.7690 H     1 <1>   0.1500 
 51 H       -4.1880    -7.8060     1.2160 H     1 <1>   0.1500 
 52 H       -3.8100    -7.1630    -2.4040 H     1 <1>   0.0800 
 53 H       -4.5890    -6.0820    -1.2700 H     1 <1>   0.0800 
 54 H       -4.8740    -7.8040    -1.1830 H     1 <1>   0.0800 
@<TRIPOS>BOND
  1   1   2  2   
  2   2   3  am  
  3   2   4  1   
  4   3   5  1   
  5   3   6  1   
  6   4   7  1   
  7   4   8  1   
  8   4  24  1   
  9   5   9  1   
 10   5  25  1   
 11   5  26  1   
 12   6  10  1   
 13   6  27  1   
 14   6  28  1   
 15   7  11  1   
 16   7  29  1   
 17   7  30  1   
 18   8  12  1   
 19   8  31  1   
 20   8  32  1   
 21   9  13  1   
 22   9  33  1   
 23   9  34  1   
 24  10  13  1   
 25  10  35  1   
 26  10  36  1   
 27  11  14  1   
 28  11  37  1   
 29  11  38  1   
 30  12  14  1   
 31  12  39  1   
 32  12  40  1   
 33  13  15  1   
 34  13  41  1   
 35  14  16  1   
 36  14  42  1   
 37  15  43  1   
 38  15  44  1   
 39  15  45  1   
 40  16  17  1   
 41  16  46  1   
 42  16  47  1   
 43  17  18  ar  
 44  17  19  ar  
 45  18  20  ar  
 46  18  48  1   
 47  19  21  ar  
 48  19  49  1   
 49  20  22  ar  
 50  20  23  1   
 51  21  22  ar  
 52  21  50  1   
 53  22  51  1   
 54  23  52  1   
 55  23  53  1   
 56  23  54  1   
@<TRIPOS>SUBSTRUCTURE
  1 ****   7 GROUP 4 **** **** 0

# MOE 2024.06 (io_trps.svl 2023.06)
