@<TRIPOS>MOLECULE
3-(2-Ethoxy-ethyl)-1,6-dimethyl-8-o-tolyl-5,6,7,8-tetrahydro-1H-1,3,4b,8,9-penta
57 60 1 0 0 
SMALL
USER_CHARGES


@<TRIPOS>ATOM
  1 O        0.9630    -0.0770    -0.6340 O.2   1 <1>  -0.5740 
  2 C        1.9110     0.6780    -0.6730 C.2   1 <1>   0.6870 
  3 N        1.7070     2.0490    -0.7850 N.am  1 <1>  -0.4250 
  4 N        3.2020     0.1680    -0.5960 N.am  1 <1>  -0.4410 
  5 C        2.7720     2.9380    -0.7820 C.2   1 <1>   0.7000 
  6 C        0.3090     2.5710    -0.9210 C.3   1 <1>   0.1340 
  7 C        4.2560     1.0600    -0.6390 C.2   1 <1>   0.4210 
  8 C        3.4430    -1.3020    -0.4940 C.3   1 <1>   0.0530 
  9 O        2.5900     4.1430    -0.8180 O.2   1 <1>  -0.5740 
 10 C        4.0960     2.3990    -0.7250 C.2   1 <1>   0.2710 
 11 C       -0.3420     2.7410     0.4520 C.3   1 <1>   0.1130 
 12 N        5.5900     0.7830    -0.6000 N.pl3 1 <1>  -0.7030 
 13 N        5.3870     2.9450    -0.7370 N.pl3 1 <1>  -0.7670 
 14 O       -1.6030     3.2890     0.2610 O.3   1 <1>  -0.5640 
 15 C        6.2480     1.9390    -0.6570 C.cat 1 <1>   1.0690 
 16 C        5.7690     4.3700    -0.8290 C.3   1 <1>   0.3490 
 17 C       -2.3270     3.4600     1.4320 C.3   1 <1>   0.1130 
 18 N        7.5800     2.1080    -0.6400 N.pl3 1 <1>  -0.5790 
 19 C        7.2080     4.4740    -1.3680 C.3   1 <1>  -0.0870 
 20 C       -3.6730     4.0650     1.0570 C.3   1 <1>  -0.2460 
 21 C        8.4710     1.0340    -0.5410 C.ar  1 <1>   0.3060 
 22 C        8.1530     3.4830    -0.6580 C.3   1 <1>   0.1610 
 23 C        7.7390     5.9090    -1.2380 C.3   1 <1>  -0.2460 
 24 C        8.7370     0.4170     0.6840 C.ar  1 <1>  -0.1500 
 25 C        9.0760     0.5540    -1.6960 C.ar  1 <1>  -0.1560 
 26 C        9.5890    -0.6760     0.7220 C.ar  1 <1>  -0.1560 
 27 C        8.1270     0.9130     1.9920 C.3   1 <1>  -0.1030 
 28 C        9.9250    -0.5340    -1.6470 C.ar  1 <1>  -0.1560 
 29 C       10.1780    -1.1510    -0.4370 C.ar  1 <1>  -0.1560 
 30 H       -0.2790     1.8850    -1.5060 H     1 <1>   0.0730 
 31 H        0.3140     3.5190    -1.4290 H     1 <1>   0.0730 
 32 H        2.5660    -1.8080    -0.1250 H     1 <1>   0.0730 
 33 H        4.2520    -1.5040     0.1850 H     1 <1>   0.0730 
 34 H        3.6820    -1.6990    -1.4660 H     1 <1>   0.0730 
 35 H        0.2310     3.4170     1.0630 H     1 <1>   0.0730 
 36 H       -0.4520     1.7860     0.9370 H     1 <1>   0.0730 
 37 H        6.0470    -0.1240    -0.5420 H     1 <1>   0.4450 
 38 H        5.7030     4.8160     0.1490 H     1 <1>   0.0730 
 39 H        5.0930     4.8930    -1.4870 H     1 <1>   0.0730 
 40 H       -1.7820     4.1210     2.0850 H     1 <1>   0.0730 
 41 H       -2.4600     2.5010     1.9030 H     1 <1>   0.0730 
 42 H        7.1920     4.2310    -2.4170 H     1 <1>   0.0730 
 43 H       -3.5280     5.0150     0.5750 H     1 <1>   0.0730 
 44 H       -4.2640     4.2150     1.9410 H     1 <1>   0.0730 
 45 H       -4.2030     3.4040     0.3950 H     1 <1>   0.0730 
 46 H        9.1050     3.4710    -1.1640 H     1 <1>   0.0730 
 47 H        8.3230     3.8010     0.3570 H     1 <1>   0.0730 
 48 H        7.7850     6.2150    -0.2070 H     1 <1>   0.0730 
 49 H        7.1030     6.5970    -1.7690 H     1 <1>   0.0730 
 50 H        8.7280     5.9830    -1.6580 H     1 <1>   0.0730 
 51 H        8.8830     1.0320    -2.6400 H     1 <1>   0.1440 
 52 H        9.8110    -1.1680     1.6550 H     1 <1>   0.1440 
 53 H        7.0730     0.7050     2.0220 H     1 <1>   0.0730 
 54 H        8.2820     1.9710     2.1010 H     1 <1>   0.0730 
 55 H        8.5870     0.4280     2.8350 H     1 <1>   0.0730 
 56 H       10.3940    -0.9030    -2.5450 H     1 <1>   0.1440 
 57 H       10.8410    -2.0000    -0.3940 H     1 <1>   0.1440 
@<TRIPOS>BOND
  1   1   2  2   
  2   2   3  am  
  3   2   4  am  
  4   3   5  am  
  5   3   6  1   
  6   4   7  1   
  7   4   8  1   
  8   5   9  2   
  9   5  10  1   
 10   6  11  1   
 11   6  30  1   
 12   6  31  1   
 13   7  10  2   
 14   7  12  1   
 15   8  32  1   
 16   8  33  1   
 17   8  34  1   
 18  10  13  1   
 19  11  14  1   
 20  11  35  1   
 21  11  36  1   
 22  12  15  ar  
 23  12  37  1   
 24  13  15  ar  
 25  13  16  1   
 26  14  17  1   
 27  15  18  ar  
 28  16  19  1   
 29  16  38  1   
 30  16  39  1   
 31  17  20  1   
 32  17  40  1   
 33  17  41  1   
 34  18  21  1   
 35  18  22  1   
 36  19  22  1   
 37  19  23  1   
 38  19  42  1   
 39  20  43  1   
 40  20  44  1   
 41  20  45  1   
 42  21  24  ar  
 43  21  25  ar  
 44  22  46  1   
 45  22  47  1   
 46  23  48  1   
 47  23  49  1   
 48  23  50  1   
 49  24  26  ar  
 50  24  27  1   
 51  25  28  ar  
 52  25  51  1   
 53  26  29  ar  
 54  26  52  1   
 55  27  53  1   
 56  27  54  1   
 57  27  55  1   
 58  28  29  ar  
 59  28  56  1   
 60  29  57  1   
@<TRIPOS>SUBSTRUCTURE
  1 ****  10 GROUP 4 **** **** 0

# MOE 2024.06 (io_trps.svl 2023.06)
