@<TRIPOS>MOLECULE
2-(1-Methyl-2,4-dioxo-8-o-tolyl-1,4,5,6,7,8-hexahydro-2H-1,3,4b,8,9-pentaaza-flu
48 51 1 0 0 
SMALL
USER_CHARGES


@<TRIPOS>ATOM
  1 O        1.0690     0.7680    -1.7180 O.2   1 <1>  -0.5750 
  2 C        2.0180     1.4020    -1.3000 C.2   1 <1>   0.6860 
  3 N        1.8680     2.7510    -1.0120 N.am  1 <1>  -0.4260 
  4 N        3.2440     0.7780    -1.1110 N.am  1 <1>  -0.4420 
  5 C        2.9320     3.5120    -0.5570 C.2   1 <1>   0.6990 
  6 C        0.4830     3.2610    -0.7530 C.3   1 <1>   0.1940 
  7 C        4.2750     1.5270    -0.5760 C.2   1 <1>   0.4200 
  8 C        3.4130    -0.6770    -1.3930 C.3   1 <1>   0.0520 
  9 O        2.8150     4.7170    -0.4030 O.2   1 <1>  -0.5750 
 10 C        4.1700     2.8450    -0.2970 C.2   1 <1>   0.2700 
 11 C        0.0270     2.9120     0.6660 C.2   1 <1>   0.5640 
 12 N        5.5320     1.1120    -0.2500 N.pl3 1 <1>  -0.7040 
 13 N        5.4150     3.2340     0.2180 N.pl3 1 <1>  -0.7680 
 14 O        0.8500     2.6660     1.5150 O.2   1 <1>  -0.5750 
 15 N       -1.2850     2.8720     0.9740 N.am  1 <1>  -0.8030 
 16 C        6.1960     2.1620     0.2280 C.cat 1 <1>   1.0680 
 17 C        5.8070     4.5670     0.7150 C.3   1 <1>   0.3470 
 18 N        7.4670     2.1810     0.6660 N.pl3 1 <1>  -0.5800 
 19 C        6.9810     4.3980     1.6870 C.3   1 <1>  -0.1680 
 20 C        8.2860     1.0460     0.6400 C.ar  1 <1>   0.3040 
 21 C        8.0670     3.4580     1.1390 C.3   1 <1>   0.1600 
 22 C        8.8970     0.6140    -0.5390 C.ar  1 <1>  -0.1510 
 23 C        8.4640     0.3200     1.8110 C.ar  1 <1>  -0.1580 
 24 C        9.6600    -0.5430    -0.5220 C.ar  1 <1>  -0.1580 
 25 C        8.7620     1.3800    -1.8520 C.3   1 <1>  -0.1050 
 26 C        9.2280    -0.8310     1.8180 C.ar  1 <1>  -0.1580 
 27 C        9.8230    -1.2640     0.6480 C.ar  1 <1>  -0.1580 
 28 H       -0.2030     2.8330    -1.4630 H     1 <1>   0.0720 
 29 H        0.4530     4.3290    -0.8750 H     1 <1>   0.0720 
 30 H        2.6950    -1.0060    -2.1260 H     1 <1>   0.0720 
 31 H        3.2630    -1.2410    -0.4890 H     1 <1>   0.0720 
 32 H        4.3970    -0.8730    -1.7800 H     1 <1>   0.0720 
 33 H        5.9300     0.1780    -0.3220 H     1 <1>   0.4440 
 34 H       -1.5630     2.6240     1.9260 H     1 <1>   0.3640 
 35 H       -2.0490     3.0280     0.3150 H     1 <1>   0.3640 
 36 H        4.9760     5.0360     1.2160 H     1 <1>   0.0720 
 37 H        6.0970     5.1850    -0.1190 H     1 <1>   0.0720 
 38 H        6.6140     4.0100     2.6210 H     1 <1>   0.0720 
 39 H        7.4110     5.3620     1.8940 H     1 <1>   0.0720 
 40 H        8.5770     3.9290     0.3150 H     1 <1>   0.0720 
 41 H        8.7920     3.2570     1.9100 H     1 <1>   0.0720 
 42 H        8.0040     0.6540     2.7240 H     1 <1>   0.1420 
 43 H       10.1420    -0.8960    -1.4190 H     1 <1>   0.1420 
 44 H        7.7740     1.2630    -2.2570 H     1 <1>   0.0720 
 45 H        9.4680     1.0170    -2.5790 H     1 <1>   0.0720 
 46 H        8.9600     2.4260    -1.7000 H     1 <1>   0.0720 
 47 H        9.3650    -1.3910     2.7280 H     1 <1>   0.1420 
 48 H       10.4210    -2.1600     0.6480 H     1 <1>   0.1420 
@<TRIPOS>BOND
  1   1   2  2   
  2   2   3  am  
  3   2   4  am  
  4   3   5  am  
  5   3   6  1   
  6   4   7  1   
  7   4   8  1   
  8   5   9  2   
  9   5  10  1   
 10   6  11  1   
 11   6  28  1   
 12   6  29  1   
 13   7  10  2   
 14   7  12  1   
 15   8  30  1   
 16   8  31  1   
 17   8  32  1   
 18  10  13  1   
 19  11  14  2   
 20  11  15  am  
 21  12  16  ar  
 22  12  33  1   
 23  13  16  ar  
 24  13  17  1   
 25  15  34  1   
 26  15  35  1   
 27  16  18  ar  
 28  17  19  1   
 29  17  36  1   
 30  17  37  1   
 31  18  20  1   
 32  18  21  1   
 33  19  21  1   
 34  19  38  1   
 35  19  39  1   
 36  20  22  ar  
 37  20  23  ar  
 38  21  40  1   
 39  21  41  1   
 40  22  24  ar  
 41  22  25  1   
 42  23  26  ar  
 43  23  42  1   
 44  24  27  ar  
 45  24  43  1   
 46  25  44  1   
 47  25  45  1   
 48  25  46  1   
 49  26  27  ar  
 50  26  47  1   
 51  27  48  1   
@<TRIPOS>SUBSTRUCTURE
  1 ****   7 GROUP 4 **** **** 0

# MOE 2024.06 (io_trps.svl 2023.06)
