@<TRIPOS>MOLECULE
1-[1-(2,5-Dimethoxy-benzenesulfonyl)-piperidine-4-carbonyl]-piperidine-4-carboxy
59 61 1 0 0 
SMALL
USER_CHARGES


@<TRIPOS>ATOM
  1 S       -0.0400    -0.2180    -1.2330 S.o2  1 <1>   1.4470 
  2 O        0.5510    -1.3670    -1.8890 O.2   1 <1>  -0.6500 
  3 O       -0.6800     0.7790    -2.0670 O.2   1 <1>  -0.6500 
  4 N        1.2310     0.5340    -0.3990 N.am  1 <1>  -0.8490 
  5 C       -1.1930    -0.7920     0.0400 C.ar  1 <1>  -0.0090 
  6 C        2.0660     1.3240    -1.3020 C.3   1 <1>   0.1960 
  7 C        2.0150    -0.4180     0.3920 C.3   1 <1>   0.1960 
  8 C       -1.7690     0.0880     0.9520 C.ar  1 <1>   0.0830 
  9 C       -1.5380    -2.1370     0.1280 C.ar  1 <1>  -0.1500 
 10 C        3.1160     2.1080    -0.5100 C.3   1 <1>  -0.1600 
 11 C        3.0530     0.3240     1.2350 C.3   1 <1>  -0.1600 
 12 O       -1.4640     1.4010     0.9180 O.3   1 <1>  -0.3620 
 13 C       -2.6460    -0.3600     1.9280 C.ar  1 <1>  -0.1500 
 14 C       -2.4220    -2.5960     1.0990 C.ar  1 <1>   0.0830 
 15 C        3.9850     1.1720     0.3490 C.3   1 <1>  -0.0190 
 16 C       -2.4160     2.2520     0.3210 C.3   1 <1>   0.0400 
 17 C       -2.9720    -1.7000     1.9990 C.ar  1 <1>  -0.1500 
 18 O       -2.7930    -3.8960     1.2290 O.3   1 <1>  -0.3630 
 19 C        5.0360     1.9560     1.1490 C.2   1 <1>   0.5690 
 20 C       -2.3330    -4.8830     0.3310 C.3   1 <1>   0.0400 
 21 O        4.7940     2.2050     2.3070 O.2   1 <1>  -0.5700 
 22 N        6.2210     2.3550     0.5720 N.am  1 <1>  -0.6600 
 23 C        7.2690     3.0430     1.3780 C.3   1 <1>   0.1400 
 24 C        6.6330     2.1320    -0.8420 C.3   1 <1>   0.1400 
 25 C        8.5260     2.1720     1.4070 C.3   1 <1>  -0.1600 
 26 C        7.8710     1.2320    -0.8610 C.3   1 <1>  -0.1600 
 27 C        9.0140     1.8300    -0.0160 C.3   1 <1>  -0.0190 
 28 C       10.2330     0.9130     0.0010 C.2   1 <1>   0.5690 
 29 O       11.2490     1.2610    -0.5400 O.2   1 <1>  -0.5700 
 30 N       10.1730    -0.2860     0.6120 N.am  1 <1>  -0.8000 
 31 H        1.4510     2.0260    -1.8410 H     1 <1>   0.0800 
 32 H        2.5440     0.6750    -2.0180 H     1 <1>   0.0800 
 33 H        2.5060    -1.1230    -0.2590 H     1 <1>   0.0800 
 34 H        1.3610    -0.9650     1.0520 H     1 <1>   0.0800 
 35 H       -1.1010    -2.8190    -0.5780 H     1 <1>   0.1500 
 36 H        2.6130     2.8160     0.1260 H     1 <1>   0.0800 
 37 H        3.7300     2.6650    -1.1930 H     1 <1>   0.0800 
 38 H        3.6340    -0.3860     1.7960 H     1 <1>   0.0800 
 39 H        2.5370     0.9540     1.9390 H     1 <1>   0.0800 
 40 H       -3.0640     0.3400     2.6300 H     1 <1>   0.1500 
 41 H        4.5010     0.4850    -0.2940 H     1 <1>   0.0800 
 42 H       -2.0160     3.2500     0.3160 H     1 <1>   0.0800 
 43 H       -3.3260     2.2200     0.8930 H     1 <1>   0.0800 
 44 H       -2.5930     1.9250    -0.6890 H     1 <1>   0.0800 
 45 H       -3.6510    -2.0600     2.7510 H     1 <1>   0.1500 
 46 H       -2.7720    -5.8220     0.6150 H     1 <1>   0.0800 
 47 H       -1.2620    -4.9450     0.3980 H     1 <1>   0.0800 
 48 H       -2.6430    -4.6220    -0.6650 H     1 <1>   0.0800 
 49 H        6.9300     3.2210     2.3850 H     1 <1>   0.0800 
 50 H        7.4880     3.9980     0.9310 H     1 <1>   0.0800 
 51 H        6.8680     3.0830    -1.2900 H     1 <1>   0.0800 
 52 H        5.8500     1.6840    -1.4230 H     1 <1>   0.0800 
 53 H        8.3010     1.2730     1.9540 H     1 <1>   0.0800 
 54 H        9.3040     2.6920     1.9380 H     1 <1>   0.0800 
 55 H        8.2060     1.1100    -1.8760 H     1 <1>   0.0800 
 56 H        7.6000     0.2610    -0.4850 H     1 <1>   0.0800 
 57 H        9.3200     2.7490    -0.4840 H     1 <1>   0.0800 
 58 H       11.0010    -0.8830     0.6190 H     1 <1>   0.3700 
 59 H        9.3480    -0.6330     1.0990 H     1 <1>   0.3700 
@<TRIPOS>BOND
  1   1   2  2   
  2   1   3  2   
  3   1   4  am  
  4   1   5  1   
  5   4   6  1   
  6   4   7  1   
  7   5   8  ar  
  8   5   9  ar  
  9   6  10  1   
 10   6  31  1   
 11   6  32  1   
 12   7  11  1   
 13   7  33  1   
 14   7  34  1   
 15   8  12  1   
 16   8  13  ar  
 17   9  14  ar  
 18   9  35  1   
 19  10  15  1   
 20  10  36  1   
 21  10  37  1   
 22  11  15  1   
 23  11  38  1   
 24  11  39  1   
 25  12  16  1   
 26  13  17  ar  
 27  13  40  1   
 28  14  17  ar  
 29  14  18  1   
 30  15  19  1   
 31  15  41  1   
 32  16  42  1   
 33  16  43  1   
 34  16  44  1   
 35  17  45  1   
 36  18  20  1   
 37  19  21  2   
 38  19  22  am  
 39  20  46  1   
 40  20  47  1   
 41  20  48  1   
 42  22  23  1   
 43  22  24  1   
 44  23  25  1   
 45  23  49  1   
 46  23  50  1   
 47  24  26  1   
 48  24  51  1   
 49  24  52  1   
 50  25  27  1   
 51  25  53  1   
 52  25  54  1   
 53  26  27  1   
 54  26  55  1   
 55  26  56  1   
 56  27  28  1   
 57  27  57  1   
 58  28  29  2   
 59  28  30  am  
 60  30  58  1   
 61  30  59  1   
@<TRIPOS>SUBSTRUCTURE
  1 ****  11 GROUP 4 **** **** 0

# MOE 2024.06 (io_trps.svl 2023.06)
