@<TRIPOS>MOLECULE
2-(1-Cyclopropyl-ethyl)-4-methyl-2H-pyrazol-3-ylamine
27 28 1 0 0 
SMALL
USER_CHARGES


@<TRIPOS>ATOM
  1 N       -1.3440    -0.3740     1.4150 N.2   1 <1>  -0.7070 
  2 N       -1.6680    -0.8370     0.1730 N.pl3 1 <1>   0.3140 
  3 C       -1.5760     0.8990     1.3600 C.2   1 <1>   0.1390 
  4 C       -2.1140     0.1760    -0.6260 C.2   1 <1>  -0.0680 
  5 C       -1.4990    -2.2580    -0.2510 C.3   1 <1>   0.2710 
  6 C       -2.0520     1.3060     0.1180 C.2   1 <1>  -0.1810 
  7 N       -2.5510     0.0520    -1.9540 N.pl3 1 <1>  -0.8840 
  8 C       -2.7820    -3.0570     0.0840 C.3   1 <1>  -0.1950 
  9 C       -0.2020    -2.8580     0.3280 C.3   1 <1>  -0.2400 
 10 C       -2.4110     2.7300    -0.2630 C.3   1 <1>  -0.0590 
 11 C       -3.0950    -3.5730     1.4550 C.3   1 <1>  -0.2000 
 12 C       -2.8160    -4.5360     0.3350 C.3   1 <1>  -0.2000 
 13 H       -1.4140     1.5600     2.1930 H     1 <1>   0.1500 
 14 H       -1.3900    -2.2530    -1.3200 H     1 <1>   0.0800 
 15 H       -3.2690    -0.6660    -2.0950 H     1 <1>   0.4000 
 16 H       -2.8830     0.9360    -2.3520 H     1 <1>   0.4000 
 17 H       -3.6170    -2.6620    -0.4670 H     1 <1>   0.1000 
 18 H       -0.2560    -2.9240     1.3990 H     1 <1>   0.0800 
 19 H        0.6330    -2.2350     0.0620 H     1 <1>   0.0800 
 20 H       -0.0310    -3.8390    -0.0750 H     1 <1>   0.0800 
 21 H       -1.5710     3.3770    -0.0830 H     1 <1>   0.0800 
 22 H       -3.2440     3.0660     0.3270 H     1 <1>   0.0800 
 23 H       -2.6740     2.7900    -1.3020 H     1 <1>   0.0800 
 24 H       -4.1020    -3.4680     1.8200 H     1 <1>   0.1000 
 25 H       -2.3670    -3.4470     2.2380 H     1 <1>   0.1000 
 26 H       -1.9110    -5.1140     0.3910 H     1 <1>   0.1000 
 27 H       -3.6370    -5.1070    -0.0640 H     1 <1>   0.1000 
@<TRIPOS>BOND
  1   1   2  1   
  2   1   3  2   
  3   2   4  1   
  4   2   5  1   
  5   3   6  1   
  6   3  13  1   
  7   4   6  2   
  8   4   7  1   
  9   5   8  1   
 10   5   9  1   
 11   5  14  1   
 12   6  10  1   
 13   7  15  1   
 14   7  16  1   
 15   8  11  1   
 16   8  12  1   
 17   8  17  1   
 18   9  18  1   
 19   9  19  1   
 20   9  20  1   
 21  10  21  1   
 22  10  22  1   
 23  10  23  1   
 24  11  12  1   
 25  11  24  1   
 26  11  25  1   
 27  12  26  1   
 28  12  27  1   
@<TRIPOS>SUBSTRUCTURE
  1 ****   2 GROUP 4 **** **** 0

# MOE 2024.06 (io_trps.svl 2023.06)
