@<TRIPOS>MOLECULE
1-(5-Chloro-2-methyl-phenyl)-4-(thiophene-2-sulfonyl)-piperazine
39 41 1 0 0 
SMALL
USER_CHARGES


@<TRIPOS>ATOM
  1 CL      -0.8380     0.0280    -2.3650 Cl    1 <1>  -0.1770 
  2 C       -1.9880     0.8020    -1.3050 C.ar  1 <1>   0.1770 
  3 C       -3.2100     0.2080    -1.0790 C.ar  1 <1>  -0.1500 
  4 C       -1.6540     2.0020    -0.7080 C.ar  1 <1>  -0.1500 
  5 C       -4.1360     0.8100    -0.2390 C.ar  1 <1>   0.1000 
  6 C       -2.5700     2.6100     0.1340 C.ar  1 <1>  -0.1500 
  7 N       -5.3510     0.1560    -0.0560 N.pl3 1 <1>  -0.8380 
  8 C       -3.8050     2.0250     0.3760 C.ar  1 <1>  -0.1430 
  9 C       -6.6240     0.7620    -0.5360 C.3   1 <1>   0.2090 
 10 C       -5.5190    -0.7730     1.0980 C.3   1 <1>   0.2090 
 11 C       -4.7650     2.7410     1.3170 C.3   1 <1>  -0.0970 
 12 C       -7.6790    -0.3330    -0.7860 C.3   1 <1>   0.1960 
 13 C       -6.6250    -1.8080     0.8130 C.3   1 <1>   0.1960 
 14 N       -7.8980    -1.1760     0.4090 N.am  1 <1>  -0.8490 
 15 S       -9.1130    -2.3340     0.1720 S.o2  1 <1>   1.5000 
 16 O       -9.0990    -3.2080     1.3240 O.2   1 <1>  -0.6500 
 17 O       -8.8940    -2.9020    -1.1410 O.2   1 <1>  -0.6500 
 18 C      -10.6460    -1.3700     0.1600 C.2   1 <1>  -0.0220 
 19 S      -10.8200    -0.0580     1.3250 S.3   1 <1>  -0.0800 
 20 C      -11.7690    -1.4540    -0.5850 C.2   1 <1>  -0.1500 
 21 C      -12.4260     0.3350     0.7410 C.2   1 <1>  -0.1100 
 22 C      -12.7760    -0.4900    -0.2610 C.2   1 <1>  -0.1500 
 23 H       -3.4530    -0.7230    -1.5540 H     1 <1>   0.1500 
 24 H       -0.6960     2.4480    -0.8990 H     1 <1>   0.1500 
 25 H       -2.3100     3.5450     0.5990 H     1 <1>   0.1500 
 26 H       -6.4400     1.3070    -1.4460 H     1 <1>   0.0800 
 27 H       -7.0010     1.4460     0.2020 H     1 <1>   0.0800 
 28 H       -5.7840    -0.2110     1.9770 H     1 <1>   0.0800 
 29 H       -4.5890    -1.2790     1.2900 H     1 <1>   0.0800 
 30 H       -5.5190     3.2510     0.7480 H     1 <1>   0.0800 
 31 H       -4.2450     3.4630     1.9200 H     1 <1>   0.0800 
 32 H       -5.2400     2.0390     1.9770 H     1 <1>   0.0800 
 33 H       -7.3490    -0.9410    -1.6120 H     1 <1>   0.0800 
 34 H       -8.6030     0.1400    -1.0700 H     1 <1>   0.0800 
 35 H       -6.7770    -2.3920     1.7050 H     1 <1>   0.0800 
 36 H       -6.2860    -2.4740     0.0360 H     1 <1>   0.0800 
 37 H      -11.9320    -2.1760    -1.3670 H     1 <1>   0.1500 
 38 H      -12.9430     1.1490     1.2180 H     1 <1>   0.1500 
 39 H      -13.7110    -0.4650    -0.7940 H     1 <1>   0.1500 
@<TRIPOS>BOND
  1   1   2  1   
  2   2   3  ar  
  3   2   4  ar  
  4   3   5  ar  
  5   3  23  1   
  6   4   6  ar  
  7   4  24  1   
  8   5   7  1   
  9   5   8  ar  
 10   6   8  ar  
 11   6  25  1   
 12   7   9  1   
 13   7  10  1   
 14   8  11  1   
 15   9  12  1   
 16   9  26  1   
 17   9  27  1   
 18  10  13  1   
 19  10  28  1   
 20  10  29  1   
 21  11  30  1   
 22  11  31  1   
 23  11  32  1   
 24  12  14  1   
 25  12  33  1   
 26  12  34  1   
 27  13  14  1   
 28  13  35  1   
 29  13  36  1   
 30  14  15  am  
 31  15  16  2   
 32  15  17  2   
 33  15  18  1   
 34  18  19  1   
 35  18  20  2   
 36  19  21  1   
 37  20  22  1   
 38  20  37  1   
 39  21  22  2   
 40  21  38  1   
 41  22  39  1   
@<TRIPOS>SUBSTRUCTURE
  1 ****   9 GROUP 4 **** **** 0

# MOE 2024.06 (io_trps.svl 2023.06)
