@<TRIPOS>MOLECULE
Pyrrolidine-1-carboxylic acid 4-acetylamino-phenyl ester
34 35 1 0 0 
SMALL
USER_CHARGES


@<TRIPOS>ATOM
  1 O       -0.7870    -0.6140     0.3370 O.2   1 <1>  -0.5700 
  2 C       -0.4230    -1.7600     0.1470 C.2   1 <1>   0.7800 
  3 O       -1.3110    -2.7440    -0.0510 O.3   1 <1>  -0.2330 
  4 N        0.9000    -2.1000     0.1280 N.am  1 <1>  -0.6600 
  5 C       -2.6550    -2.5860    -0.1830 C.ar  1 <1>   0.0830 
  6 C        1.9890    -1.1220     0.3160 C.3   1 <1>   0.1400 
  7 C        1.4230    -3.4600    -0.1110 C.3   1 <1>   0.1400 
  8 C       -3.4800    -3.5100     0.4380 C.ar  1 <1>  -0.1500 
  9 C       -3.2130    -1.5570    -0.9320 C.ar  1 <1>  -0.1500 
 10 C        3.2540    -1.8790    -0.0760 C.3   1 <1>  -0.1600 
 11 C        2.9180    -3.3490     0.1700 C.3   1 <1>  -0.1600 
 12 C       -4.8540    -3.3960     0.3300 C.ar  1 <1>  -0.1500 
 13 C       -4.5870    -1.4480    -1.0380 C.ar  1 <1>  -0.1500 
 14 C       -5.4210    -2.3590    -0.4000 C.ar  1 <1>   0.1170 
 15 N       -6.8120    -2.2550    -0.4910 N.am  1 <1>  -0.5470 
 16 C       -7.6320    -1.2130    -0.2030 C.2   1 <1>   0.5690 
 17 O       -8.8180    -1.3180    -0.3760 O.2   1 <1>  -0.5700 
 18 C       -7.0860     0.0810     0.3550 C.3   1 <1>  -0.1790 
 19 H        2.0240    -0.8320     1.3530 H     1 <1>   0.0800 
 20 H        1.8350    -0.2510    -0.2990 H     1 <1>   0.0800 
 21 H        1.2510    -3.7280    -1.1400 H     1 <1>   0.0800 
 22 H        0.9500    -4.1770     0.5380 H     1 <1>   0.0800 
 23 H       -3.0440    -4.3110     1.0070 H     1 <1>   0.1500 
 24 H       -2.5800    -0.8450    -1.4310 H     1 <1>   0.1500 
 25 H        4.1070    -1.5510     0.4910 H     1 <1>   0.0800 
 26 H        3.4460    -1.7170    -1.1220 H     1 <1>   0.0800 
 27 H        3.4930    -4.0110    -0.4540 H     1 <1>   0.0800 
 28 H        3.0990    -3.5970     1.2020 H     1 <1>   0.0800 
 29 H       -5.4910    -4.1100     0.8200 H     1 <1>   0.1500 
 30 H       -5.0120    -0.6540    -1.6240 H     1 <1>   0.1500 
 31 H       -7.3200    -3.0950    -0.7660 H     1 <1>   0.3700 
 32 H       -6.3020    -0.1190     1.0610 H     1 <1>   0.0800 
 33 H       -7.8720     0.6170     0.8540 H     1 <1>   0.0800 
 34 H       -6.7060     0.6870    -0.4440 H     1 <1>   0.0800 
@<TRIPOS>BOND
  1   1   2  2   
  2   2   3  1   
  3   2   4  am  
  4   3   5  1   
  5   4   6  1   
  6   4   7  1   
  7   5   8  ar  
  8   5   9  ar  
  9   6  10  1   
 10   6  19  1   
 11   6  20  1   
 12   7  11  1   
 13   7  21  1   
 14   7  22  1   
 15   8  12  ar  
 16   8  23  1   
 17   9  13  ar  
 18   9  24  1   
 19  10  11  1   
 20  10  25  1   
 21  10  26  1   
 22  11  27  1   
 23  11  28  1   
 24  12  14  ar  
 25  12  29  1   
 26  13  14  ar  
 27  13  30  1   
 28  14  15  1   
 29  15  16  am  
 30  15  31  1   
 31  16  17  2   
 32  16  18  1   
 33  18  32  1   
 34  18  33  1   
 35  18  34  1   
@<TRIPOS>SUBSTRUCTURE
  1 ****   5 GROUP 4 **** **** 0

# MOE 2024.06 (io_trps.svl 2023.06)
