@<TRIPOS>MOLECULE
2-Ethyl-1-(4-methoxy-2,3-dimethyl-benzenesulfonyl)-1H-imidazole
38 39 1 0 0 
SMALL
USER_CHARGES


@<TRIPOS>ATOM
  1 S       -0.2510    -1.3590     0.4810 S.o2  1 <1>   1.2950 
  2 O       -0.2100    -2.0370     1.7610 O.2   1 <1>  -0.6500 
  3 O       -0.5910    -2.1390    -0.6940 O.2   1 <1>  -0.6500 
  4 N       -1.3830    -0.0020     0.5830 N.pl3 1 <1>   0.3170 
  5 C        1.3420    -0.5260     0.1850 C.ar  1 <1>  -0.0090 
  6 C       -1.5720     1.0260    -0.2940 C.2   1 <1>   0.0060 
  7 C       -2.2300     0.2870     1.6040 C.2   1 <1>  -0.3020 
  8 C        1.8600     0.5090     0.9780 C.ar  1 <1>  -0.1440 
  9 C        2.0830    -0.9340    -0.9190 C.ar  1 <1>  -0.1500 
 10 N       -2.4340     1.9060     0.1110 N.2   1 <1>  -0.5650 
 11 C       -0.8280     1.1300    -1.6270 C.3   1 <1>   0.0200 
 12 C       -2.8530     1.4410     1.2980 C.2   1 <1>   0.0770 
 13 C        3.0500     1.1490     0.6170 C.ar  1 <1>  -0.1430 
 14 C        1.1350     0.9550     2.2530 C.3   1 <1>  -0.0960 
 15 C        3.2750    -0.3330    -1.2610 C.ar  1 <1>  -0.1500 
 16 C       -1.4880     2.1010    -2.6140 C.3   1 <1>  -0.2400 
 17 C        3.7660     0.7170    -0.4990 C.ar  1 <1>   0.0830 
 18 C        3.5920     2.3280     1.4340 C.3   1 <1>  -0.0970 
 19 O        4.9350     1.3380    -0.8050 O.3   1 <1>  -0.3630 
 20 C        5.7550     0.9260    -1.8760 C.3   1 <1>   0.0400 
 21 H       -2.3290    -0.3440     2.4690 H     1 <1>   0.1500 
 22 H        1.7250    -1.7430    -1.5340 H     1 <1>   0.1500 
 23 H       -0.7840     0.1620    -2.0930 H     1 <1>   0.0800 
 24 H        0.1790     1.4630    -1.4430 H     1 <1>   0.0800 
 25 H       -3.5930     1.9720     1.8760 H     1 <1>   0.1500 
 26 H        1.8360     1.2450     3.0140 H     1 <1>   0.0800 
 27 H        0.4950     1.7940     2.0420 H     1 <1>   0.0800 
 28 H        0.5500     0.1700     2.6910 H     1 <1>   0.0800 
 29 H        3.8010    -0.6960    -2.1230 H     1 <1>   0.1500 
 30 H       -2.5010     1.7970    -2.8100 H     1 <1>   0.0800 
 31 H       -0.9440     2.1180    -3.5410 H     1 <1>   0.0800 
 32 H       -1.5020     3.0960    -2.2030 H     1 <1>   0.0800 
 33 H        2.7960     2.9820     1.7390 H     1 <1>   0.0800 
 34 H        4.2790     2.9300     0.8680 H     1 <1>   0.0800 
 35 H        4.1050     1.9620     2.3040 H     1 <1>   0.0800 
 36 H        6.6260     1.5560    -1.8910 H     1 <1>   0.0800 
 37 H        5.2100     1.0360    -2.7970 H     1 <1>   0.0800 
 38 H        6.0480    -0.0970    -1.7190 H     1 <1>   0.0800 
@<TRIPOS>BOND
  1   1   2  2   
  2   1   3  2   
  3   1   4  1   
  4   1   5  1   
  5   4   6  1   
  6   4   7  1   
  7   5   8  ar  
  8   5   9  ar  
  9   6  10  2   
 10   6  11  1   
 11   7  12  2   
 12   7  21  1   
 13   8  13  ar  
 14   8  14  1   
 15   9  15  ar  
 16   9  22  1   
 17  10  12  1   
 18  11  16  1   
 19  11  23  1   
 20  11  24  1   
 21  12  25  1   
 22  13  17  ar  
 23  13  18  1   
 24  14  26  1   
 25  14  27  1   
 26  14  28  1   
 27  15  17  ar  
 28  15  29  1   
 29  16  30  1   
 30  16  31  1   
 31  16  32  1   
 32  17  19  1   
 33  18  33  1   
 34  18  34  1   
 35  18  35  1   
 36  19  20  1   
 37  20  36  1   
 38  20  37  1   
 39  20  38  1   
@<TRIPOS>SUBSTRUCTURE
  1 ****   5 GROUP 4 **** **** 0

# MOE 2024.06 (io_trps.svl 2023.06)
