@<TRIPOS>MOLECULE
5-Oxo-1-(toluene-4-sulfonyl)-pyrrolidine-2-carboxylic acid (2,3-dihydro-benzo[1,
49 52 1 0 0 
SMALL
USER_CHARGES


@<TRIPOS>ATOM
  1 S        0.6890     0.6420    -1.7260 S.o2  1 <1>   1.4470 
  2 O        2.0340     0.6440    -2.2610 O.2   1 <1>  -0.6500 
  3 O       -0.3560     1.2970    -2.4720 O.2   1 <1>  -0.6500 
  4 N        0.8330     1.5130    -0.2530 N.am  1 <1>  -0.7300 
  5 C        0.2400    -1.0340    -1.2010 C.ar  1 <1>  -0.0090 
  6 C       -0.1890     1.6910     0.5840 C.2   1 <1>   0.7450 
  7 C        1.9500     2.4480    -0.0170 C.3   1 <1>   0.3370 
  8 C        1.1880    -1.8840    -0.6430 C.ar  1 <1>  -0.1500 
  9 C       -1.0610    -1.5060    -1.3240 C.ar  1 <1>  -0.1500 
 10 O       -1.2230     1.0780     0.5780 O.2   1 <1>  -0.5700 
 11 C        0.1050     2.8000     1.5560 C.3   1 <1>  -0.0990 
 12 C        3.1790     1.7170     0.5780 C.2   1 <1>   0.5690 
 13 C        1.3140     3.5020     0.9160 C.3   1 <1>  -0.1600 
 14 C        0.8530    -3.1630    -0.2340 C.ar  1 <1>  -0.1500 
 15 C       -1.4020    -2.7840    -0.9170 C.ar  1 <1>  -0.1500 
 16 O        3.4260     1.8320     1.7560 O.2   1 <1>  -0.5700 
 17 N        3.9220     0.9320    -0.2630 N.am  1 <1>  -0.5470 
 18 C       -0.4450    -3.6220    -0.3720 C.ar  1 <1>  -0.1430 
 19 C        4.9940     0.0580    -0.0250 C.ar  1 <1>   0.1170 
 20 C       -0.8190    -5.0220     0.0780 C.3   1 <1>  -0.0970 
 21 C        5.2240    -0.9540    -0.9490 C.ar  1 <1>  -0.1500 
 22 C        5.8330     0.1570     1.0830 C.ar  1 <1>  -0.1500 
 23 C        6.2570    -1.8550    -0.7670 C.ar  1 <1>   0.0830 
 24 C        6.8750    -0.7360     1.2680 C.ar  1 <1>  -0.1500 
 25 O        6.4310    -2.8430    -1.6810 O.3   1 <1>  -0.3630 
 26 C        7.0940    -1.7410     0.3440 C.ar  1 <1>   0.0830 
 27 C        7.2800    -3.9140    -1.3110 C.3   1 <1>   0.1200 
 28 O        8.1300    -2.6010     0.5370 O.3   1 <1>  -0.3630 
 29 C        8.5180    -3.3830    -0.5770 C.3   1 <1>   0.1200 
 30 H        2.2410     2.9180    -0.9410 H     1 <1>   0.0800 
 31 H        2.2030    -1.5480    -0.5230 H     1 <1>   0.1500 
 32 H       -1.8200    -0.8620    -1.7370 H     1 <1>   0.1500 
 33 H        0.3650     2.3690     2.5060 H     1 <1>   0.0800 
 34 H       -0.7380     3.4570     1.6620 H     1 <1>   0.0800 
 35 H        0.9700     4.3250     0.3140 H     1 <1>   0.0800 
 36 H        2.0010     3.8890     1.6500 H     1 <1>   0.0800 
 37 H        1.6090    -3.7980     0.1950 H     1 <1>   0.1500 
 38 H       -2.4190    -3.1210    -1.0230 H     1 <1>   0.1500 
 39 H        3.5360     0.8520    -1.2150 H     1 <1>   0.3700 
 40 H        0.0380    -5.6710     0.0480 H     1 <1>   0.0800 
 41 H       -1.5770    -5.4320    -0.5660 H     1 <1>   0.0800 
 42 H       -1.1970    -4.9920     1.0840 H     1 <1>   0.0800 
 43 H        4.5980    -1.0530    -1.8160 H     1 <1>   0.1500 
 44 H        5.6810     0.9350     1.8080 H     1 <1>   0.1500 
 45 H        7.5200    -0.6560     2.1240 H     1 <1>   0.1500 
 46 H        7.5610    -4.4390    -2.2060 H     1 <1>   0.0800 
 47 H        6.7230    -4.5770    -0.6720 H     1 <1>   0.0800 
 48 H        9.1050    -2.7640    -1.2320 H     1 <1>   0.0800 
 49 H        9.1260    -4.1920    -0.2160 H     1 <1>   0.0800 
@<TRIPOS>BOND
  1   1   2  2   
  2   1   3  2   
  3   1   4  am  
  4   1   5  1   
  5   4   6  am  
  6   4   7  1   
  7   5   8  ar  
  8   5   9  ar  
  9   6  10  2   
 10   6  11  1   
 11   7  12  1   
 12   7  13  1   
 13   7  30  1   
 14   8  14  ar  
 15   8  31  1   
 16   9  15  ar  
 17   9  32  1   
 18  11  13  1   
 19  11  33  1   
 20  11  34  1   
 21  12  16  2   
 22  12  17  am  
 23  13  35  1   
 24  13  36  1   
 25  14  18  ar  
 26  14  37  1   
 27  15  18  ar  
 28  15  38  1   
 29  17  19  1   
 30  17  39  1   
 31  18  20  1   
 32  19  21  ar  
 33  19  22  ar  
 34  20  40  1   
 35  20  41  1   
 36  20  42  1   
 37  21  23  ar  
 38  21  43  1   
 39  22  24  ar  
 40  22  44  1   
 41  23  25  1   
 42  23  26  ar  
 43  24  26  ar  
 44  24  45  1   
 45  25  27  1   
 46  26  28  1   
 47  27  29  1   
 48  27  46  1   
 49  27  47  1   
 50  28  29  1   
 51  29  48  1   
 52  29  49  1   
@<TRIPOS>SUBSTRUCTURE
  1 ****  17 GROUP 4 **** **** 0

# MOE 2024.06 (io_trps.svl 2023.06)
