@<TRIPOS>MOLECULE
N,N-Dimethyl-3-(3-m-tolyl-[1,2,4]oxadiazol-5-yl)-propionamide
36 37 1 0 0 
SMALL
USER_CHARGES


@<TRIPOS>ATOM
  1 O        0.3150    -0.6030     1.4050 O.2   1 <1>  -0.5700 
  2 C        0.6750    -1.5080     0.6880 C.2   1 <1>   0.5690 
  3 N        1.7680    -1.3870    -0.1370 N.am  1 <1>  -0.6600 
  4 C       -0.1170    -2.8050     0.7220 C.3   1 <1>  -0.0990 
  5 C        2.3180    -2.4730    -0.9970 C.3   1 <1>   0.0600 
  6 C        2.5160    -0.1020    -0.2420 C.3   1 <1>   0.0600 
  7 C       -1.4390    -2.6930     1.4980 C.3   1 <1>   0.0200 
  8 C       -2.1940    -4.0070     1.4760 C.2   1 <1>   0.2980 
  9 O       -1.7280    -5.0110     2.1710 O.3   1 <1>  -0.0190 
 10 N       -3.2570    -4.2400     0.8260 N.2   1 <1>  -0.5650 
 11 N       -2.5690    -5.9700     1.9410 N.2   1 <1>  -0.4100 
 12 C       -3.4780    -5.5190     1.1490 C.2   1 <1>   0.4620 
 13 C       -4.6140    -6.2730     0.6440 C.ar  1 <1>   0.0540 
 14 C       -5.5600    -5.6970    -0.2060 C.ar  1 <1>  -0.1500 
 15 C       -4.8040    -7.6120     0.9920 C.ar  1 <1>  -0.1500 
 16 C       -6.6430    -6.4120    -0.6900 C.ar  1 <1>  -0.1440 
 17 C       -5.8810    -8.3360     0.5160 C.ar  1 <1>  -0.1500 
 18 C       -6.8010    -7.7370    -0.3240 C.ar  1 <1>  -0.1500 
 19 C       -7.6560    -5.7580    -1.6120 C.3   1 <1>  -0.0970 
 20 H        0.4950    -3.5630     1.1730 H     1 <1>   0.0800 
 21 H       -0.3400    -3.0990    -0.2880 H     1 <1>   0.0800 
 22 H        1.9620    -3.4390    -0.6890 H     1 <1>   0.0800 
 23 H        3.3920    -2.4780    -0.9330 H     1 <1>   0.0800 
 24 H        2.0300    -2.3030    -2.0200 H     1 <1>   0.0800 
 25 H        2.0320     0.6760     0.3240 H     1 <1>   0.0800 
 26 H        2.5660     0.2080    -1.2710 H     1 <1>   0.0800 
 27 H        3.5140    -0.2310     0.1380 H     1 <1>   0.0800 
 28 H       -2.0530    -1.9290     1.0550 H     1 <1>   0.0800 
 29 H       -1.2480    -2.4170     2.5200 H     1 <1>   0.0800 
 30 H       -5.4420    -4.6660    -0.4900 H     1 <1>   0.1500 
 31 H       -4.0980    -8.0930     1.6460 H     1 <1>   0.1500 
 32 H       -6.0050    -9.3670     0.8000 H     1 <1>   0.1500 
 33 H       -7.6380    -8.3050    -0.6920 H     1 <1>   0.1500 
 34 H       -7.2870    -4.8180    -1.9820 H     1 <1>   0.0800 
 35 H       -8.5730    -5.5830    -1.0790 H     1 <1>   0.0800 
 36 H       -7.8570    -6.3980    -2.4520 H     1 <1>   0.0800 
@<TRIPOS>BOND
  1   1   2  2   
  2   2   3  am  
  3   2   4  1   
  4   3   5  1   
  5   3   6  1   
  6   4   7  1   
  7   4  20  1   
  8   4  21  1   
  9   5  22  1   
 10   5  23  1   
 11   5  24  1   
 12   6  25  1   
 13   6  26  1   
 14   6  27  1   
 15   7   8  1   
 16   7  28  1   
 17   7  29  1   
 18   8   9  1   
 19   8  10  2   
 20   9  11  1   
 21  10  12  1   
 22  11  12  2   
 23  12  13  1   
 24  13  14  ar  
 25  13  15  ar  
 26  14  16  ar  
 27  14  30  1   
 28  15  17  ar  
 29  15  31  1   
 30  16  18  ar  
 31  16  19  1   
 32  17  18  ar  
 33  17  32  1   
 34  18  33  1   
 35  19  34  1   
 36  19  35  1   
 37  19  36  1   
@<TRIPOS>SUBSTRUCTURE
  1 ****  10 GROUP 4 **** **** 0

# MOE 2024.06 (io_trps.svl 2023.06)
