@<TRIPOS>MOLECULE
(3,5-Dimethyl-[1,2,4]triazol-1-yl)-morpholin-4-yl-methanone
29 30 1 0 0 
SMALL
USER_CHARGES


@<TRIPOS>ATOM
  1 O        0.3250     4.8550     0.0000 O.2   1 <1>  -0.5700 
  2 C        0.1570     3.6460     0.0340 C.2   1 <1>   0.6390 
  3 N        1.2660     2.8350     0.2430 N.am  1 <1>  -0.6600 
  4 N       -1.1680     3.1200    -0.1580 N.pl3 1 <1>   0.5610 
  5 C        2.5830     3.3930     0.6810 C.3   1 <1>   0.1400 
  6 C        1.2670     1.3420     0.1290 C.3   1 <1>   0.1400 
  7 N       -1.7090     2.0500     0.4770 N.2   1 <1>  -0.7070 
  8 C       -2.1250     3.5730    -1.0090 C.2   1 <1>   0.0070 
  9 C        3.7380     2.7770    -0.1250 C.3   1 <1>   0.1200 
 10 C        2.5120     0.8430    -0.6250 C.3   1 <1>   0.1200 
 11 C       -2.8870     1.9640    -0.0260 C.2   1 <1>   0.3350 
 12 N       -3.1970     2.8740    -0.9520 N.2   1 <1>  -0.5650 
 13 C       -1.9690     4.7660    -1.9360 C.3   1 <1>  -0.0600 
 14 O        3.6800     1.3810    -0.0760 O.3   1 <1>  -0.5600 
 15 C       -3.8920     0.9140     0.3760 C.3   1 <1>  -0.0590 
 16 H        2.7280     3.1740     1.7240 H     1 <1>   0.0800 
 17 H        2.6070     4.4620     0.5640 H     1 <1>   0.0800 
 18 H        0.3980     0.9940    -0.3970 H     1 <1>   0.0800 
 19 H        1.2530     0.9130     1.1160 H     1 <1>   0.0800 
 20 H        4.6820     3.0820     0.2900 H     1 <1>   0.0800 
 21 H        3.6940     3.0920    -1.1530 H     1 <1>   0.0800 
 22 H        2.4620     1.1200    -1.6640 H     1 <1>   0.0800 
 23 H        2.5810    -0.2280    -0.5570 H     1 <1>   0.0800 
 24 H       -2.8320     4.8520    -2.5720 H     1 <1>   0.0800 
 25 H       -1.8770     5.6700    -1.3610 H     1 <1>   0.0800 
 26 H       -1.0960     4.6510    -2.5530 H     1 <1>   0.0800 
 27 H       -3.4740     0.2720     1.1290 H     1 <1>   0.0800 
 28 H       -4.1610     0.3280    -0.4820 H     1 <1>   0.0800 
 29 H       -4.7700     1.3920     0.7670 H     1 <1>   0.0800 
@<TRIPOS>BOND
  1   1   2  2   
  2   2   3  am  
  3   2   4  1   
  4   3   5  1   
  5   3   6  1   
  6   4   7  1   
  7   4   8  1   
  8   5   9  1   
  9   5  16  1   
 10   5  17  1   
 11   6  10  1   
 12   6  18  1   
 13   6  19  1   
 14   7  11  2   
 15   8  12  2   
 16   8  13  1   
 17   9  14  1   
 18   9  20  1   
 19   9  21  1   
 20  10  14  1   
 21  10  22  1   
 22  10  23  1   
 23  11  12  1   
 24  11  15  1   
 25  13  24  1   
 26  13  25  1   
 27  13  26  1   
 28  15  27  1   
 29  15  28  1   
 30  15  29  1   
@<TRIPOS>SUBSTRUCTURE
  1 ****   2 GROUP 4 **** **** 0

# MOE 2024.06 (io_trps.svl 2023.06)
