@<TRIPOS>MOLECULE
3-(4-Ethyl-5-pyridin-4-yl-4H-[1,2,4]triazol-3-ylsulfanyl)-propionitrile
31 32 1 0 0 
SMALL
USER_CHARGES


@<TRIPOS>ATOM
  1 S       -0.4540    -2.5370    -0.2920 S.3   1 <1>  -0.2860 
  2 C       -1.7330    -1.3750     0.1950 C.2   1 <1>   0.2420 
  3 C        1.0560    -1.8600     0.5280 C.3   1 <1>   0.0700 
  4 N       -1.5090    -0.3550     0.9450 N.2   1 <1>  -0.3380 
  5 N       -3.0020    -1.4930    -0.1790 N.pl3 1 <1>   0.0480 
  6 C        2.2340    -2.7710     0.1880 C.3   1 <1>   0.0400 
  7 N       -2.6860     0.2490     1.0950 N.2   1 <1>  -0.3380 
  8 C       -3.5750    -0.4290     0.4200 C.2   1 <1>   0.1330 
  9 C       -3.6320    -2.5650    -0.9840 C.3   1 <1>   0.0960 
 10 C        3.4810    -2.2710     0.8230 C.1   1 <1>   0.3570 
 11 C       -4.9750    -0.1020     0.3460 C.ar  1 <1>   0.0530 
 12 C       -4.2950    -3.6050    -0.0760 C.3   1 <1>  -0.2400 
 13 N        4.4340    -1.8880     1.3090 N.1   1 <1>  -0.5570 
 14 C       -5.7710    -0.0520     1.4790 C.ar  1 <1>  -0.1500 
 15 C       -5.6260     0.1880    -0.8430 C.ar  1 <1>  -0.1500 
 16 C       -7.1160     0.2430     1.3730 C.ar  1 <1>   0.1600 
 17 C       -6.9790     0.4720    -0.8440 C.ar  1 <1>   0.1600 
 18 N       -7.7430     0.4980     0.2360 N.ar  1 <1>  -0.6200 
 19 H        0.8620    -1.8330     1.5870 H     1 <1>   0.0800 
 20 H        1.2010    -0.8600     0.1570 H     1 <1>   0.0800 
 21 H        2.3760    -2.8010    -0.8770 H     1 <1>   0.0800 
 22 H        2.0400    -3.7660     0.5420 H     1 <1>   0.0800 
 23 H       -2.8810    -3.0380    -1.5920 H     1 <1>   0.0800 
 24 H       -4.3650    -2.1310    -1.6390 H     1 <1>   0.0800 
 25 H       -3.5660    -4.0520     0.5780 H     1 <1>   0.0800 
 26 H       -4.7360    -4.3830    -0.6740 H     1 <1>   0.0800 
 27 H       -5.0730    -3.1520     0.5140 H     1 <1>   0.0800 
 28 H       -5.3330    -0.2420     2.4420 H     1 <1>   0.1500 
 29 H       -5.0780     0.2010    -1.7660 H     1 <1>   0.1500 
 30 H       -7.7110     0.2720     2.2710 H     1 <1>   0.1500 
 31 H       -7.4620     0.6940    -1.7810 H     1 <1>   0.1500 
@<TRIPOS>BOND
  1   1   2  1   
  2   1   3  1   
  3   2   4  2   
  4   2   5  1   
  5   3   6  1   
  6   3  19  1   
  7   3  20  1   
  8   4   7  1   
  9   5   8  1   
 10   5   9  1   
 11   6  10  1   
 12   6  21  1   
 13   6  22  1   
 14   7   8  2   
 15   8  11  1   
 16   9  12  1   
 17   9  23  1   
 18   9  24  1   
 19  10  13  3   
 20  11  14  ar  
 21  11  15  ar  
 22  12  25  1   
 23  12  26  1   
 24  12  27  1   
 25  14  16  ar  
 26  14  28  1   
 27  15  17  ar  
 28  15  29  1   
 29  16  18  ar  
 30  16  30  1   
 31  17  18  ar  
 32  17  31  1   
@<TRIPOS>SUBSTRUCTURE
  1 ****   5 GROUP 4 **** **** 0

# MOE 2024.06 (io_trps.svl 2023.06)
