@<TRIPOS>MOLECULE
1-[4-(3,4,5-Trihydroxy-6-hydroxymethyl-tetrahydro-pyran-2-ylamino)-phenyl]-ethan
40 41 1 0 0 
SMALL
USER_CHARGES


@<TRIPOS>ATOM
  1 O        0.2170    -0.5280    -0.5610 O.2   1 <1>  -0.5700 
  2 C       -0.6570     0.2210    -0.2040 C.2   1 <1>   0.4230 
  3 C       -2.0150    -0.2060     0.0520 C.ar  1 <1>   0.0860 
  4 C       -0.2610     1.6760    -0.0300 C.3   1 <1>  -0.1790 
  5 C       -3.0390     0.6730     0.4250 C.ar  1 <1>  -0.1500 
  6 C       -2.3660    -1.5540    -0.0660 C.ar  1 <1>  -0.1500 
  7 C       -4.3260     0.2310     0.6560 C.ar  1 <1>  -0.1500 
  8 C       -3.6520    -1.9990     0.1670 C.ar  1 <1>  -0.1500 
  9 C       -4.6590    -1.1100     0.5230 C.ar  1 <1>   0.1000 
 10 N       -5.9590    -1.5140     0.7520 N.pl3 1 <1>  -0.8690 
 11 C       -6.6350    -2.4240    -0.1790 C.3   1 <1>   0.5690 
 12 O       -7.8690    -1.7970    -0.3700 O.3   1 <1>  -0.5600 
 13 C       -6.7640    -3.8780     0.3770 C.3   1 <1>   0.2000 
 14 C       -8.8300    -2.0940     0.6100 C.3   1 <1>   0.2000 
 15 O       -5.7900    -4.7220    -0.1670 O.3   1 <1>  -0.6800 
 16 C       -8.1480    -4.5060     0.0930 C.3   1 <1>   0.2000 
 17 C       -9.3350    -3.5300     0.3590 C.3   1 <1>   0.2000 
 18 C       -9.9210    -1.0100     0.5910 C.3   1 <1>   0.1200 
 19 O       -8.1680    -4.9750    -1.2310 O.3   1 <1>  -0.6800 
 20 O      -10.2180    -3.5360    -0.7260 O.3   1 <1>  -0.6800 
 21 O       -9.3170     0.2390     0.6350 O.3   1 <1>  -0.6800 
 22 H       -0.4500     1.9890     0.9800 H     1 <1>   0.0800 
 23 H       -0.8160     2.2910    -0.7130 H     1 <1>   0.0800 
 24 H        0.7870     1.7960    -0.2350 H     1 <1>   0.0800 
 25 H       -2.8370     1.7220     0.5390 H     1 <1>   0.1500 
 26 H       -1.6070    -2.2660    -0.3430 H     1 <1>   0.1500 
 27 H       -5.0890     0.9310     0.9440 H     1 <1>   0.1500 
 28 H       -3.8720    -3.0470     0.0780 H     1 <1>   0.1500 
 29 H       -6.6070    -0.7460     0.9430 H     1 <1>   0.4000 
 30 H       -6.1310    -2.4340    -1.1320 H     1 <1>   0.0800 
 31 H       -6.5920    -3.8440     1.4380 H     1 <1>   0.0800 
 32 H       -8.3590    -2.0520     1.5780 H     1 <1>   0.0800 
 33 H       -6.1890    -5.1310    -0.9700 H     1 <1>   0.4000 
 34 H       -8.2660    -5.3630     0.7330 H     1 <1>   0.0800 
 35 H       -9.8870    -3.8580     1.2220 H     1 <1>   0.0800 
 36 H      -10.5700    -1.1040     1.4440 H     1 <1>   0.0800 
 37 H      -10.5120    -1.0630    -0.3060 H     1 <1>   0.0800 
 38 H       -9.1020    -5.1690    -1.4690 H     1 <1>   0.4000 
 39 H       -9.7600    -3.1360    -1.4970 H     1 <1>   0.4000 
 40 H       -8.6840     0.3020    -0.1110 H     1 <1>   0.4000 
@<TRIPOS>BOND
  1   1   2  2   
  2   2   3  1   
  3   2   4  1   
  4   3   5  ar  
  5   3   6  ar  
  6   4  22  1   
  7   4  23  1   
  8   4  24  1   
  9   5   7  ar  
 10   5  25  1   
 11   6   8  ar  
 12   6  26  1   
 13   7   9  ar  
 14   7  27  1   
 15   8   9  ar  
 16   8  28  1   
 17   9  10  1   
 18  10  11  1   
 19  10  29  1   
 20  11  12  1   
 21  11  13  1   
 22  11  30  1   
 23  12  14  1   
 24  13  15  1   
 25  13  16  1   
 26  13  31  1   
 27  14  17  1   
 28  14  18  1   
 29  14  32  1   
 30  15  33  1   
 31  16  17  1   
 32  16  19  1   
 33  16  34  1   
 34  17  20  1   
 35  17  35  1   
 36  18  21  1   
 37  18  36  1   
 38  18  37  1   
 39  19  38  1   
 40  20  39  1   
 41  21  40  1   
@<TRIPOS>SUBSTRUCTURE
  1 ****  10 GROUP 4 **** **** 0

# MOE 2024.06 (io_trps.svl 2023.06)
