@<TRIPOS>MOLECULE
5-Oxo-1-p-tolyl-pyrrolidine-3-carboxylic acid [4-(pyrrolidine-1-sulfonyl)-phenyl
55 58 1 0 0 
SMALL
USER_CHARGES


@<TRIPOS>ATOM
  1 S       -1.4380     1.1610     0.6380 S.o2  1 <1>   1.4470 
  2 O       -1.6700     1.8780     1.8730 O.2   1 <1>  -0.6500 
  3 O       -1.8260     1.7680    -0.6180 O.2   1 <1>  -0.6500 
  4 N        0.2290     0.8760     0.5540 N.am  1 <1>  -0.8490 
  5 C       -2.1240    -0.5120     0.7750 C.ar  1 <1>  -0.0090 
  6 C        0.6800     0.2700    -0.6880 C.3   1 <1>   0.1960 
  7 C        1.0160     2.0860     0.7040 C.3   1 <1>   0.1960 
  8 C       -2.9620    -1.0380    -0.2020 C.ar  1 <1>  -0.1500 
  9 C       -1.8160    -1.3220     1.8610 C.ar  1 <1>  -0.1500 
 10 C        2.1880     0.4770    -0.6780 C.3   1 <1>  -0.1600 
 11 C        2.4070     1.7030     0.2100 C.3   1 <1>  -0.1600 
 12 C       -3.4690    -2.3210    -0.0990 C.ar  1 <1>  -0.1500 
 13 C       -2.3200    -2.6060     1.9680 C.ar  1 <1>  -0.1500 
 14 C       -3.1520    -3.1300     0.9870 C.ar  1 <1>   0.1170 
 15 N       -3.6460    -4.4340     1.1410 N.am  1 <1>  -0.5470 
 16 C       -4.0860    -5.3340     0.2070 C.2   1 <1>   0.5690 
 17 O       -4.0630    -5.1200    -0.9790 O.2   1 <1>  -0.5700 
 18 C       -4.5940    -6.6830     0.6990 C.3   1 <1>  -0.0190 
 19 C       -5.3510    -7.4850    -0.3710 C.3   1 <1>   0.1400 
 20 C       -5.5690    -6.6070     1.8830 C.3   1 <1>  -0.0990 
 21 N       -6.3380    -8.2810     0.3900 N.am  1 <1>  -0.4770 
 22 C       -6.4760    -7.7840     1.6530 C.2   1 <1>   0.5690 
 23 C       -7.0940    -9.2960    -0.2300 C.ar  1 <1>   0.1170 
 24 O       -7.2090    -8.1870     2.5220 O.2   1 <1>  -0.5700 
 25 C       -6.5040   -10.1960    -1.1120 C.ar  1 <1>  -0.1500 
 26 C       -8.4570    -9.4220     0.0150 C.ar  1 <1>  -0.1500 
 27 C       -7.2520   -11.1790    -1.7360 C.ar  1 <1>  -0.1500 
 28 C       -9.2070   -10.4040    -0.6060 C.ar  1 <1>  -0.1500 
 29 C       -8.6100   -11.2880    -1.4890 C.ar  1 <1>  -0.1430 
 30 C       -9.4320   -12.3670    -2.1690 C.3   1 <1>  -0.0970 
 31 H        0.2530     0.7860    -1.5340 H     1 <1>   0.0800 
 32 H        0.4170    -0.7740    -0.7310 H     1 <1>   0.0800 
 33 H        1.0260     2.4140     1.7300 H     1 <1>   0.0800 
 34 H        0.6090     2.8670     0.0820 H     1 <1>   0.0800 
 35 H       -3.2230    -0.4340    -1.0560 H     1 <1>   0.1500 
 36 H       -1.1680    -0.9340     2.6300 H     1 <1>   0.1500 
 37 H        2.5630     0.6250    -1.6750 H     1 <1>   0.0800 
 38 H        2.6660    -0.3840    -0.2460 H     1 <1>   0.0800 
 39 H        3.0330     1.4500     1.0490 H     1 <1>   0.0800 
 40 H        2.8550     2.5190    -0.3290 H     1 <1>   0.0800 
 41 H       -4.1180    -2.6880    -0.8740 H     1 <1>   0.1500 
 42 H       -2.0570    -3.2030     2.8220 H     1 <1>   0.1500 
 43 H       -3.6330    -4.7730     2.1000 H     1 <1>   0.3700 
 44 H       -3.7410    -7.2690     0.9910 H     1 <1>   0.0800 
 45 H       -4.6780    -8.1090    -0.9300 H     1 <1>   0.0800 
 46 H       -5.8840    -6.8360    -1.0470 H     1 <1>   0.0800 
 47 H       -6.1650    -5.7120     1.8520 H     1 <1>   0.0800 
 48 H       -5.0710    -6.6930     2.8310 H     1 <1>   0.0800 
 49 H       -5.4510   -10.1410    -1.3120 H     1 <1>   0.1500 
 50 H       -8.9370    -8.7460     0.6990 H     1 <1>   0.1500 
 51 H       -6.7710   -11.8630    -2.4130 H     1 <1>   0.1500 
 52 H      -10.2600   -10.4780    -0.3940 H     1 <1>   0.1500 
 53 H       -9.0130   -12.6110    -3.1280 H     1 <1>   0.0800 
 54 H      -10.4430   -12.0320    -2.3160 H     1 <1>   0.0800 
 55 H       -9.4450   -13.2520    -1.5590 H     1 <1>   0.0800 
@<TRIPOS>BOND
  1   1   2  2   
  2   1   3  2   
  3   1   4  am  
  4   1   5  1   
  5   4   6  1   
  6   4   7  1   
  7   5   8  ar  
  8   5   9  ar  
  9   6  10  1   
 10   6  31  1   
 11   6  32  1   
 12   7  11  1   
 13   7  33  1   
 14   7  34  1   
 15   8  12  ar  
 16   8  35  1   
 17   9  13  ar  
 18   9  36  1   
 19  10  11  1   
 20  10  37  1   
 21  10  38  1   
 22  11  39  1   
 23  11  40  1   
 24  12  14  ar  
 25  12  41  1   
 26  13  14  ar  
 27  13  42  1   
 28  14  15  1   
 29  15  16  am  
 30  15  43  1   
 31  16  17  2   
 32  16  18  1   
 33  18  19  1   
 34  18  20  1   
 35  18  44  1   
 36  19  21  1   
 37  19  45  1   
 38  19  46  1   
 39  20  22  1   
 40  20  47  1   
 41  20  48  1   
 42  21  22  am  
 43  21  23  1   
 44  22  24  2   
 45  23  25  ar  
 46  23  26  ar  
 47  25  27  ar  
 48  25  49  1   
 49  26  28  ar  
 50  26  50  1   
 51  27  29  ar  
 52  27  51  1   
 53  28  29  ar  
 54  28  52  1   
 55  29  30  1   
 56  30  53  1   
 57  30  54  1   
 58  30  55  1   
@<TRIPOS>SUBSTRUCTURE
  1 ****  16 GROUP 4 **** **** 0

# MOE 2024.06 (io_trps.svl 2023.06)
