@<TRIPOS>MOLECULE
N-(2,6-Dimethyl-phenyl)-2-(pyrimidin-2-ylsulfanyl)-butyramide
40 41 1 0 0 
SMALL
USER_CHARGES


@<TRIPOS>ATOM
  1 S        0.7990    -1.1160    -0.8180 S.3   1 <1>  -0.3320 
  2 C       -0.9680    -1.2670    -0.6070 C.ar  1 <1>   0.7220 
  3 C        1.3240     0.4010     0.1260 C.3   1 <1>   0.2110 
  4 N       -1.5060    -2.2760    -1.2740 N.ar  1 <1>  -0.6200 
  5 N       -1.5570    -0.3810     0.1820 N.ar  1 <1>  -0.6200 
  6 C        2.1330     1.3110    -0.8150 C.2   1 <1>   0.5690 
  7 C        2.0050    -0.0480     1.4360 C.3   1 <1>  -0.1600 
  8 C       -2.8060    -2.3980    -1.1290 C.ar  1 <1>   0.1600 
  9 C       -2.8560    -0.5340     0.3030 C.ar  1 <1>   0.1600 
 10 O        1.5450     2.2070    -1.3700 O.2   1 <1>  -0.5700 
 11 N        3.4700     1.1920    -1.0610 N.am  1 <1>  -0.5470 
 12 C        1.0260    -0.6750     2.4400 C.3   1 <1>  -0.2400 
 13 C       -3.5370    -1.5400    -0.3410 C.ar  1 <1>  -0.1500 
 14 C        4.4690     0.4300    -0.4430 C.ar  1 <1>   0.1170 
 15 C        4.7420    -0.8790    -0.8490 C.ar  1 <1>  -0.1430 
 16 C        5.2200     1.0010     0.5890 C.ar  1 <1>  -0.1430 
 17 C        5.7240    -1.6070    -0.2000 C.ar  1 <1>  -0.1500 
 18 C        4.0070    -1.5660    -1.9950 C.3   1 <1>  -0.0970 
 19 C        6.2000     0.2560     1.2220 C.ar  1 <1>  -0.1500 
 20 C        4.9890     2.4420     1.0330 C.3   1 <1>  -0.0970 
 21 C        6.4500    -1.0460     0.8340 C.ar  1 <1>  -0.1500 
 22 H        0.4370     0.9490     0.3750 H     1 <1>   0.0800 
 23 H        2.4600     0.8080     1.8990 H     1 <1>   0.0800 
 24 H        2.7810    -0.7600     1.2190 H     1 <1>   0.0800 
 25 H       -3.2970    -3.2020    -1.6520 H     1 <1>   0.1500 
 26 H       -3.3900     0.1610     0.9300 H     1 <1>   0.1500 
 27 H        3.8010     1.8830    -1.7320 H     1 <1>   0.3700 
 28 H        0.2270     0.0090     2.6650 H     1 <1>   0.0800 
 29 H        1.5410    -0.9140     3.3540 H     1 <1>   0.0800 
 30 H        0.6030    -1.5810     2.0450 H     1 <1>   0.0800 
 31 H       -4.6000    -1.6520    -0.2340 H     1 <1>   0.1500 
 32 H        5.9320    -2.6190    -0.5000 H     1 <1>   0.1500 
 33 H        3.3590    -2.3290    -1.6040 H     1 <1>   0.0800 
 34 H        4.7150    -2.0280    -2.6590 H     1 <1>   0.0800 
 35 H        3.4160    -0.8790    -2.5720 H     1 <1>   0.0800 
 36 H        6.7790     0.6830     2.0220 H     1 <1>   0.1500 
 37 H        3.9650     2.5870     1.3240 H     1 <1>   0.0800 
 38 H        5.2170     3.1130     0.2240 H     1 <1>   0.0800 
 39 H        5.6160     2.6950     1.8690 H     1 <1>   0.0800 
 40 H        7.2110    -1.6210     1.3320 H     1 <1>   0.1500 
@<TRIPOS>BOND
  1   1   2  1   
  2   1   3  1   
  3   2   4  ar  
  4   2   5  ar  
  5   3   6  1   
  6   3   7  1   
  7   3  22  1   
  8   4   8  ar  
  9   5   9  ar  
 10   6  10  2   
 11   6  11  am  
 12   7  12  1   
 13   7  23  1   
 14   7  24  1   
 15   8  13  ar  
 16   8  25  1   
 17   9  13  ar  
 18   9  26  1   
 19  11  14  1   
 20  11  27  1   
 21  12  28  1   
 22  12  29  1   
 23  12  30  1   
 24  13  31  1   
 25  14  15  ar  
 26  14  16  ar  
 27  15  17  ar  
 28  15  18  1   
 29  16  19  ar  
 30  16  20  1   
 31  17  21  ar  
 32  17  32  1   
 33  18  33  1   
 34  18  34  1   
 35  18  35  1   
 36  19  21  ar  
 37  19  36  1   
 38  20  37  1   
 39  20  38  1   
 40  20  39  1   
 41  21  40  1   
@<TRIPOS>SUBSTRUCTURE
  1 ****   3 GROUP 4 **** **** 0

# MOE 2024.06 (io_trps.svl 2023.06)
