@<TRIPOS>MOLECULE
5,7-Diethyl-2-pyridin-2-yl-1,3-diaza-tricyclo[3.3.1.1*3,7*]decan-6-one
45 48 1 0 0 
SMALL
USER_CHARGES


@<TRIPOS>ATOM
  1 O        0.7190     0.6770     0.3550 O.2   1 <1>  -0.5700 
  2 C        1.1540    -0.4320     0.2730 C.2   1 <1>   0.4480 
  3 C        2.5930    -0.7210    -0.1630 C.3   1 <1>   0.0610 
  4 C        0.3190    -1.6830     0.5660 C.3   1 <1>   0.0610 
  5 C        2.4910    -1.5810    -1.4260 C.3   1 <1>   0.3430 
  6 C        3.2370    -1.5960     0.9230 C.3   1 <1>   0.1100 
  7 C        3.4070     0.5730    -0.4220 C.3   1 <1>  -0.1600 
  8 C        0.3000    -2.5030    -0.7330 C.3   1 <1>   0.3430 
  9 C        1.0920    -2.5020     1.6160 C.3   1 <1>   0.1100 
 10 C       -1.1160    -1.3980     1.0790 C.3   1 <1>  -0.1600 
 11 N        1.7000    -2.8240    -1.1410 N.4   1 <1>  -0.9590 
 12 N        2.4390    -2.8300     1.1030 N.3   1 <1>  -0.8100 
 13 C        4.8490     0.3580    -0.9160 C.3   1 <1>  -0.2400 
 14 C       -2.0770    -0.8070     0.0330 C.3   1 <1>  -0.2400 
 15 C        2.3680    -3.6660    -0.1140 C.3   1 <1>   0.8360 
 16 C        3.7210    -4.2150    -0.6280 C.ar  1 <1>   0.1670 
 17 N        3.8470    -4.3590    -1.9500 N.ar  1 <1>  -0.6200 
 18 C        4.7250    -4.5490     0.2750 C.ar  1 <1>  -0.1500 
 19 C        5.0060    -4.8440    -2.3730 C.ar  1 <1>   0.1600 
 20 C        5.9240    -5.0480    -0.1840 C.ar  1 <1>  -0.1500 
 21 C        6.0580    -5.1950    -1.5460 C.ar  1 <1>  -0.1500 
 22 H        2.0170    -1.0120    -2.2100 H     1 <1>   0.0800 
 23 H        3.4810    -1.8490    -1.7590 H     1 <1>   0.0800 
 24 H        3.2810    -1.0540     1.8550 H     1 <1>   0.0800 
 25 H        4.2470    -1.8560     0.6540 H     1 <1>   0.0800 
 26 H        3.4400     1.1510     0.4880 H     1 <1>   0.0800 
 27 H        2.8870     1.1750    -1.1490 H     1 <1>   0.0800 
 28 H       -0.1860    -1.9340    -1.5090 H     1 <1>   0.0800 
 29 H       -0.2590    -3.4110    -0.5790 H     1 <1>   0.0800 
 30 H        1.1820    -1.9370     2.5300 H     1 <1>   0.0800 
 31 H        0.5640    -3.4130     1.8490 H     1 <1>   0.0800 
 32 H       -1.0560    -0.7120     1.9090 H     1 <1>   0.0800 
 33 H       -1.5550    -2.3070     1.4540 H     1 <1>   0.0800 
 34 H        1.7490    -3.4160    -1.9850 H     1 <1>   0.4500 
 35 H        5.4430    -0.1640    -0.1860 H     1 <1>   0.0800 
 36 H        5.3120     1.3150    -1.0830 H     1 <1>   0.0800 
 37 H        4.8760    -0.1830    -1.8450 H     1 <1>   0.0800 
 38 H       -1.6900     0.1080    -0.3810 H     1 <1>   0.0800 
 39 H       -3.0180    -0.5750     0.5030 H     1 <1>   0.0800 
 40 H       -2.2750    -1.4980    -0.7660 H     1 <1>   0.0800 
 41 H        1.7470    -4.5210     0.0980 H     1 <1>   0.0800 
 42 H        4.5760    -4.4240     1.3340 H     1 <1>   0.1500 
 43 H        5.1290    -4.9720    -3.4370 H     1 <1>   0.1500 
 44 H        6.7220    -5.3140     0.4910 H     1 <1>   0.1500 
 45 H        6.9700    -5.5830    -1.9660 H     1 <1>   0.1500 
@<TRIPOS>BOND
  1   1   2  2   
  2   2   3  1   
  3   2   4  1   
  4   3   5  1   
  5   3   6  1   
  6   3   7  1   
  7   4   8  1   
  8   4   9  1   
  9   4  10  1   
 10   5  11  1   
 11   5  22  1   
 12   5  23  1   
 13   6  12  1   
 14   6  24  1   
 15   6  25  1   
 16   7  13  1   
 17   7  26  1   
 18   7  27  1   
 19   8  11  1   
 20   8  28  1   
 21   8  29  1   
 22   9  12  1   
 23   9  30  1   
 24   9  31  1   
 25  10  14  1   
 26  10  32  1   
 27  10  33  1   
 28  11  15  1   
 29  11  34  1   
 30  12  15  1   
 31  13  35  1   
 32  13  36  1   
 33  13  37  1   
 34  14  38  1   
 35  14  39  1   
 36  14  40  1   
 37  15  16  1   
 38  15  41  1   
 39  16  17  ar  
 40  16  18  ar  
 41  17  19  ar  
 42  18  20  ar  
 43  18  42  1   
 44  19  21  ar  
 45  19  43  1   
 46  20  21  ar  
 47  20  44  1   
 48  21  45  1   
@<TRIPOS>SUBSTRUCTURE
  1 ****  11 GROUP 4 **** **** 0

# MOE 2024.06 (io_trps.svl 2023.06)
