@<TRIPOS>MOLECULE
[5-(3,4-Dimethyl-phenyl)-1-methyl-1H-imidazol-2-yl]-(3,4,5-trimethoxy-benzyl)-am
56 58 1 0 0 
SMALL
USER_CHARGES


@<TRIPOS>ATOM
  1 O       -1.4880     1.3570    -0.3030 O.3   1 <1>  -0.3670 
  2 C       -2.4500     0.3950    -0.2800 C.ar  1 <1>   0.0760 
  3 C       -0.8110     1.4830    -1.5320 C.3   1 <1>   0.0330 
  4 C       -3.7960     0.7220    -0.5060 C.ar  1 <1>   0.0760 
  5 C       -2.0990    -0.9450    -0.0720 C.ar  1 <1>   0.0760 
  6 O       -4.2950     1.9790    -0.6730 O.3   1 <1>  -0.3670 
  7 C       -4.7410    -0.2880    -0.5810 C.ar  1 <1>  -0.1560 
  8 O       -0.8390    -1.3760     0.2060 O.3   1 <1>  -0.3670 
  9 C       -3.0640    -1.9350    -0.1530 C.ar  1 <1>  -0.1560 
 10 C       -3.7070     3.0870    -0.0270 C.3   1 <1>   0.0330 
 11 C       -4.3870    -1.6160    -0.4100 C.ar  1 <1>  -0.1500 
 12 C       -0.0840    -0.7000     1.1890 C.3   1 <1>   0.0330 
 13 C       -5.4400    -2.6970    -0.4770 C.3   1 <1>   0.3060 
 14 N       -6.0750    -2.7230     0.8470 N.pl3 1 <1>  -0.7170 
 15 C       -7.3460    -2.9470     1.1720 C.cat 1 <1>   1.0690 
 16 N       -7.8380    -2.6000     2.3520 N.pl3 1 <1>  -0.7030 
 17 N       -8.3070    -3.5170     0.4370 N.pl3 1 <1>  -0.7670 
 18 C       -9.1700    -2.9340     2.3760 C.2   1 <1>   0.1940 
 19 C       -9.4810    -3.4990     1.1890 C.2   1 <1>   0.3040 
 20 C       -8.2210    -4.2060    -0.8830 C.3   1 <1>   0.2690 
 21 C      -10.7500    -4.0050     0.7270 C.ar  1 <1>   0.0340 
 22 C      -11.3890    -3.4360    -0.3710 C.ar  1 <1>  -0.1560 
 23 C      -11.3700    -5.0750     1.3620 C.ar  1 <1>  -0.1560 
 24 C      -12.6020    -3.9170    -0.8350 C.ar  1 <1>  -0.1500 
 25 C      -12.5800    -5.5610     0.9090 C.ar  1 <1>  -0.1560 
 26 C      -13.2040    -4.9910    -0.1890 C.ar  1 <1>  -0.1500 
 27 C      -13.2530    -3.2550    -2.0410 C.3   1 <1>  -0.1030 
 28 C      -14.5370    -5.5570    -0.6570 C.3   1 <1>  -0.1030 
 29 H       -0.0890     2.2740    -1.4400 H     1 <1>   0.0730 
 30 H       -1.5260     1.7220    -2.3000 H     1 <1>   0.0730 
 31 H       -0.3160     0.5540    -1.7560 H     1 <1>   0.0730 
 32 H       -5.7600    -0.0090    -0.7780 H     1 <1>   0.1440 
 33 H       -2.7550    -2.9550    -0.0090 H     1 <1>   0.1440 
 34 H       -4.4360     3.8760     0.0150 H     1 <1>   0.0730 
 35 H       -2.8560     3.4120    -0.5970 H     1 <1>   0.0730 
 36 H       -3.4130     2.8030     0.9680 H     1 <1>   0.0730 
 37 H        0.6500    -1.3830     1.5760 H     1 <1>   0.0730 
 38 H       -0.7390    -0.3750     1.9790 H     1 <1>   0.0730 
 39 H        0.4090     0.1410     0.7370 H     1 <1>   0.0730 
 40 H       -4.9870    -3.6510    -0.6910 H     1 <1>   0.0730 
 41 H       -6.1570    -2.4590    -1.2450 H     1 <1>   0.0730 
 42 H       -5.4670    -2.2850     1.5380 H     1 <1>   0.4460 
 43 H       -7.3190    -2.1410     3.1010 H     1 <1>   0.4460 
 44 H       -9.8190    -2.7510     3.2190 H     1 <1>   0.1440 
 45 H       -8.4180    -3.5060    -1.6770 H     1 <1>   0.0730 
 46 H       -8.9460    -5.0010    -0.9380 H     1 <1>   0.0730 
 47 H       -7.2470    -4.6410    -1.0220 H     1 <1>   0.0730 
 48 H      -10.9310    -2.6010    -0.8690 H     1 <1>   0.1440 
 49 H      -10.9080    -5.5420     2.2150 H     1 <1>   0.1440 
 50 H      -13.0400    -6.3920     1.4160 H     1 <1>   0.1440 
 51 H      -12.6530    -2.4450    -2.4140 H     1 <1>   0.0730 
 52 H      -14.2160    -2.8610    -1.7690 H     1 <1>   0.0730 
 53 H      -13.3810    -3.9720    -2.8320 H     1 <1>   0.0730 
 54 H      -15.2970    -4.7980    -0.6100 H     1 <1>   0.0730 
 55 H      -14.8470    -6.3810    -0.0410 H     1 <1>   0.0730 
 56 H      -14.4550    -5.9070    -1.6700 H     1 <1>   0.0730 
@<TRIPOS>BOND
  1   1   2  1   
  2   1   3  1   
  3   2   4  ar  
  4   2   5  ar  
  5   3  29  1   
  6   3  30  1   
  7   3  31  1   
  8   4   6  1   
  9   4   7  ar  
 10   5   8  1   
 11   5   9  ar  
 12   6  10  1   
 13   7  11  ar  
 14   7  32  1   
 15   8  12  1   
 16   9  11  ar  
 17   9  33  1   
 18  10  34  1   
 19  10  35  1   
 20  10  36  1   
 21  11  13  1   
 22  12  37  1   
 23  12  38  1   
 24  12  39  1   
 25  13  14  1   
 26  13  40  1   
 27  13  41  1   
 28  14  15  ar  
 29  14  42  1   
 30  15  16  ar  
 31  15  17  ar  
 32  16  18  1   
 33  16  43  1   
 34  17  19  1   
 35  17  20  1   
 36  18  19  2   
 37  18  44  1   
 38  19  21  1   
 39  20  45  1   
 40  20  46  1   
 41  20  47  1   
 42  21  22  ar  
 43  21  23  ar  
 44  22  24  ar  
 45  22  48  1   
 46  23  25  ar  
 47  23  49  1   
 48  24  26  ar  
 49  24  27  1   
 50  25  26  ar  
 51  25  50  1   
 52  26  28  1   
 53  27  51  1   
 54  27  52  1   
 55  27  53  1   
 56  28  54  1   
 57  28  55  1   
 58  28  56  1   
@<TRIPOS>SUBSTRUCTURE
  1 ****  14 GROUP 4 **** **** 0

# MOE 2024.06 (io_trps.svl 2023.06)
