@<TRIPOS>MOLECULE
N-Ethyl-4-(3-phenyl-[1,2,4]oxadiazol-5-yl)-butyramide
36 37 1 0 0 
SMALL
USER_CHARGES


@<TRIPOS>ATOM
  1 O       -1.0490    -0.7310     1.5570 O.2   1 <1>  -0.5700 
  2 C       -1.2990    -1.7310     0.9320 C.2   1 <1>   0.5690 
  3 N       -0.5220    -2.8250     1.0970 N.am  1 <1>  -0.7300 
  4 C       -2.4730    -1.7510    -0.0390 C.3   1 <1>  -0.0990 
  5 C       -0.5860    -4.1360     0.4210 C.3   1 <1>   0.1400 
  6 C       -3.4930    -0.6150     0.1850 C.3   1 <1>  -0.1600 
  7 C        0.8270    -4.5430     0.0270 C.3   1 <1>  -0.2400 
  8 C       -4.6190    -0.5870    -0.8630 C.3   1 <1>   0.0200 
  9 C       -5.4170    -1.8780    -0.9120 C.2   1 <1>   0.2980 
 10 O       -4.9920    -2.8520    -1.6740 O.3   1 <1>  -0.0190 
 11 N       -6.4840    -2.1140    -0.2700 N.2   1 <1>  -0.5650 
 12 N       -5.8590    -3.7960    -1.4910 N.2   1 <1>  -0.4100 
 13 C       -6.7450    -3.3650    -0.6640 C.2   1 <1>   0.4620 
 14 C       -7.8980    -4.1140    -0.1890 C.ar  1 <1>   0.0540 
 15 C       -8.1560    -5.4100    -0.6420 C.ar  1 <1>  -0.1500 
 16 C       -8.7930    -3.5760     0.7390 C.ar  1 <1>  -0.1500 
 17 C       -9.2480    -6.1310    -0.1940 C.ar  1 <1>  -0.1500 
 18 C       -9.8870    -4.2910     1.1910 C.ar  1 <1>  -0.1500 
 19 C      -10.1170    -5.5730     0.7250 C.ar  1 <1>  -0.1500 
 20 H        0.2310    -2.7170     1.7800 H     1 <1>   0.3700 
 21 H       -2.9740    -2.6940     0.0710 H     1 <1>   0.0800 
 22 H       -2.0760    -1.6900    -1.0350 H     1 <1>   0.0800 
 23 H       -1.2060    -4.0800    -0.4570 H     1 <1>   0.0800 
 24 H       -1.0070    -4.8640     1.0950 H     1 <1>   0.0800 
 25 H       -2.9800     0.3320     0.1590 H     1 <1>   0.0800 
 26 H       -3.9250    -0.7210     1.1660 H     1 <1>   0.0800 
 27 H        1.2520    -3.8160    -0.6430 H     1 <1>   0.0800 
 28 H        0.8030    -5.4940    -0.4760 H     1 <1>   0.0800 
 29 H        1.4500    -4.6360     0.8980 H     1 <1>   0.0800 
 30 H       -4.2100    -0.3910    -1.8380 H     1 <1>   0.0800 
 31 H       -5.2920     0.2170    -0.6250 H     1 <1>   0.0800 
 32 H       -7.4910    -5.8600    -1.3580 H     1 <1>   0.1500 
 33 H       -8.6300    -2.5800     1.1130 H     1 <1>   0.1500 
 34 H       -9.4230    -7.1280    -0.5610 H     1 <1>   0.1500 
 35 H      -10.5600    -3.8510     1.9070 H     1 <1>   0.1500 
 36 H      -10.9680    -6.1320     1.0750 H     1 <1>   0.1500 
@<TRIPOS>BOND
  1   1   2  2   
  2   2   3  am  
  3   2   4  1   
  4   3   5  1   
  5   3  20  1   
  6   4   6  1   
  7   4  21  1   
  8   4  22  1   
  9   5   7  1   
 10   5  23  1   
 11   5  24  1   
 12   6   8  1   
 13   6  25  1   
 14   6  26  1   
 15   7  27  1   
 16   7  28  1   
 17   7  29  1   
 18   8   9  1   
 19   8  30  1   
 20   8  31  1   
 21   9  10  1   
 22   9  11  2   
 23  10  12  1   
 24  11  13  1   
 25  12  13  2   
 26  13  14  1   
 27  14  15  ar  
 28  14  16  ar  
 29  15  17  ar  
 30  15  32  1   
 31  16  18  ar  
 32  16  33  1   
 33  17  19  ar  
 34  17  34  1   
 35  18  19  ar  
 36  18  35  1   
 37  19  36  1   
@<TRIPOS>SUBSTRUCTURE
  1 ****   9 GROUP 4 **** **** 0

# MOE 2024.06 (io_trps.svl 2023.06)
