@<TRIPOS>MOLECULE
N-(5-Ethoxymethyl-[1,3,4]thiadiazol-2-yl)-2-thiophen-2-yl-acetamide
31 32 1 0 0 
SMALL
USER_CHARGES


@<TRIPOS>ATOM
  1 S        0.0530     0.5110     0.6480 S.3   1 <1>  -0.0800 
  2 C       -1.6300     0.6380     0.2610 C.2   1 <1>   0.4420 
  3 C        0.3790     1.3390    -0.8390 C.2   1 <1>   0.1980 
  4 N       -1.8310     1.2270    -0.8610 N.2   1 <1>  -0.3380 
  5 N       -2.5270     0.1110     1.1630 N.am  1 <1>  -0.4940 
  6 N       -0.6820     1.6240    -1.4830 N.2   1 <1>  -0.3380 
  7 C        1.8240     1.6160    -1.2140 C.3   1 <1>   0.3000 
  8 C       -3.8870     0.0560     1.1580 C.2   1 <1>   0.5690 
  9 O        2.4890     2.2310    -0.1490 O.3   1 <1>  -0.5600 
 10 O       -4.4220    -0.4870     2.0900 O.2   1 <1>  -0.5700 
 11 C       -4.6970     0.6610     0.0070 C.3   1 <1>   0.0810 
 12 C        3.8070     2.5700    -0.4190 C.3   1 <1>   0.1200 
 13 C       -6.2210     0.5880     0.0800 C.2   1 <1>  -0.1400 
 14 C        4.3810     3.2080     0.8390 C.3   1 <1>  -0.2400 
 15 S       -7.0660     1.3030    -1.2870 S.3   1 <1>  -0.0800 
 16 C       -7.1130     0.0950     0.9630 C.2   1 <1>  -0.1500 
 17 C       -8.6290     0.9020    -0.6020 C.2   1 <1>  -0.1100 
 18 C       -8.4800     0.2730     0.5760 C.2   1 <1>  -0.1500 
 19 H       -2.1260    -0.3180     1.9940 H     1 <1>   0.3700 
 20 H        1.8560     2.2710    -2.0670 H     1 <1>   0.0800 
 21 H        2.3240     0.6920    -1.4440 H     1 <1>   0.0800 
 22 H       -4.3920     0.1730    -0.9000 H     1 <1>   0.0800 
 23 H       -4.4270     1.6970    -0.0750 H     1 <1>   0.0800 
 24 H        3.8290     3.2670    -1.2410 H     1 <1>   0.0800 
 25 H        4.3550     1.6780    -0.6740 H     1 <1>   0.0800 
 26 H        3.8210     4.0900     1.0930 H     1 <1>   0.0800 
 27 H        5.4050     3.4870     0.6730 H     1 <1>   0.0800 
 28 H        4.3430     2.5120     1.6580 H     1 <1>   0.0800 
 29 H       -6.8780    -0.3980     1.8910 H     1 <1>   0.1500 
 30 H       -9.5030     1.1840    -1.1620 H     1 <1>   0.1500 
 31 H       -9.2790    -0.0810     1.2040 H     1 <1>   0.1500 
@<TRIPOS>BOND
  1   1   2  1   
  2   1   3  1   
  3   2   4  2   
  4   2   5  1   
  5   3   6  2   
  6   3   7  1   
  7   4   6  1   
  8   5   8  am  
  9   5  19  1   
 10   7   9  1   
 11   7  20  1   
 12   7  21  1   
 13   8  10  2   
 14   8  11  1   
 15   9  12  1   
 16  11  13  1   
 17  11  22  1   
 18  11  23  1   
 19  12  14  1   
 20  12  24  1   
 21  12  25  1   
 22  13  15  1   
 23  13  16  2   
 24  14  26  1   
 25  14  27  1   
 26  14  28  1   
 27  15  17  1   
 28  16  18  1   
 29  16  29  1   
 30  17  18  2   
 31  17  30  1   
 32  18  31  1   
@<TRIPOS>SUBSTRUCTURE
  1 ****   2 GROUP 4 **** **** 0

# MOE 2024.06 (io_trps.svl 2023.06)
