@<TRIPOS>MOLECULE
8-(5-Chloro-2-methoxy-phenyl)-3-ethyl-1,6,7-trimethyl-1H,8H-imidazo[2,1-f]purine
49 52 1 0 0 
SMALL
USER_CHARGES


@<TRIPOS>ATOM
  1 CL      -1.2050    -0.5840    -2.9390 Cl    1 <1>  -0.1840 
  2 C       -2.3800    -0.9340    -1.6990 C.ar  1 <1>   0.1700 
  3 C       -3.4160    -0.0480    -1.4870 C.ar  1 <1>  -0.1570 
  4 C       -2.2570    -2.0900    -0.9540 C.ar  1 <1>  -0.1570 
  5 C       -4.3550    -0.3070    -0.4990 C.ar  1 <1>   0.3050 
  6 C       -3.1940    -2.3690     0.0260 C.ar  1 <1>  -0.1570 
  7 N       -5.4070     0.6160    -0.2820 N.pl3 1 <1>  -0.5550 
  8 C       -4.2480    -1.4860     0.2560 C.ar  1 <1>   0.0750 
  9 C       -6.7150     0.3250    -0.2740 C.cat 1 <1>   1.0690 
 10 C       -5.3420     1.9630     0.0630 C.2   1 <1>   0.1570 
 11 O       -5.2040    -1.7340     1.1970 O.3   1 <1>  -0.3680 
 12 N       -7.4590    -0.7690    -0.4550 N.pl3 1 <1>  -0.7040 
 13 N       -7.4650     1.3820    -0.0010 N.pl3 1 <1>  -0.6330 
 14 C       -6.6020     2.4320     0.2270 C.2   1 <1>   0.2340 
 15 C       -4.0130     2.6830     0.2260 C.3   1 <1>  -0.1100 
 16 C       -4.9810    -2.6740     2.2310 C.3   1 <1>   0.0320 
 17 C       -8.7560    -0.3880    -0.2750 C.2   1 <1>   0.4200 
 18 C       -8.7990     0.9370     0.0070 C.2   1 <1>   0.2700 
 19 C       -7.1340     3.8020     0.6000 C.3   1 <1>  -0.1100 
 20 N       -9.8820    -1.1840    -0.3380 N.am  1 <1>  -0.4420 
 21 C      -10.0600     1.5590     0.2500 C.2   1 <1>   0.6990 
 22 C      -11.1150    -0.5990    -0.0780 C.2   1 <1>   0.6860 
 23 C       -9.7840    -2.6400    -0.6560 C.3   1 <1>   0.0520 
 24 O      -10.1410     2.7490     0.5040 O.2   1 <1>  -0.5750 
 25 N      -11.1980     0.7640     0.1940 N.am  1 <1>  -0.4260 
 26 O      -12.1170    -1.2860    -0.0840 O.2   1 <1>  -0.5750 
 27 C      -12.5380     1.3860     0.4100 C.3   1 <1>   0.1330 
 28 C      -13.1020     1.8770    -0.9230 C.3   1 <1>  -0.2470 
 29 H       -3.4820     0.8350    -2.0940 H     1 <1>   0.1430 
 30 H       -1.4360    -2.7610    -1.1420 H     1 <1>   0.1430 
 31 H       -3.0820    -3.2780     0.5890 H     1 <1>   0.1430 
 32 H       -7.0640    -1.7030    -0.5480 H     1 <1>   0.4450 
 33 H       -3.3800     2.1410     0.9060 H     1 <1>   0.0720 
 34 H       -4.1580     3.6730     0.6190 H     1 <1>   0.0720 
 35 H       -3.5130     2.7700    -0.7220 H     1 <1>   0.0720 
 36 H       -5.7890    -2.5990     2.9370 H     1 <1>   0.0720 
 37 H       -4.0500    -2.4440     2.7210 H     1 <1>   0.0720 
 38 H       -4.9570    -3.6640     1.8120 H     1 <1>   0.0720 
 39 H       -7.7860     4.1660    -0.1740 H     1 <1>   0.0720 
 40 H       -6.3340     4.5070     0.7300 H     1 <1>   0.0720 
 41 H       -7.6920     3.7430     1.5170 H     1 <1>   0.0720 
 42 H       -8.9850    -2.8220    -1.3530 H     1 <1>   0.0720 
 43 H      -10.7000    -2.9900    -1.1020 H     1 <1>   0.0720 
 44 H       -9.6070    -3.1970     0.2470 H     1 <1>   0.0720 
 45 H      -12.4570     2.2120     1.0970 H     1 <1>   0.0720 
 46 H      -13.2130     0.6700     0.8480 H     1 <1>   0.0720 
 47 H      -12.4590     2.6230    -1.3560 H     1 <1>   0.0720 
 48 H      -14.0690     2.3190    -0.7620 H     1 <1>   0.0720 
 49 H      -13.2180     1.0560    -1.6080 H     1 <1>   0.0720 
@<TRIPOS>BOND
  1   1   2  1   
  2   2   3  ar  
  3   2   4  ar  
  4   3   5  ar  
  5   3  29  1   
  6   4   6  ar  
  7   4  30  1   
  8   5   7  1   
  9   5   8  ar  
 10   6   8  ar  
 11   6  31  1   
 12   7   9  ar  
 13   7  10  1   
 14   8  11  1   
 15   9  12  ar  
 16   9  13  ar  
 17  10  14  2   
 18  10  15  1   
 19  11  16  1   
 20  12  17  1   
 21  12  32  1   
 22  13  14  1   
 23  13  18  1   
 24  14  19  1   
 25  15  33  1   
 26  15  34  1   
 27  15  35  1   
 28  16  36  1   
 29  16  37  1   
 30  16  38  1   
 31  17  18  2   
 32  17  20  1   
 33  18  21  1   
 34  19  39  1   
 35  19  40  1   
 36  19  41  1   
 37  20  22  am  
 38  20  23  1   
 39  21  24  2   
 40  21  25  am  
 41  22  25  am  
 42  22  26  2   
 43  23  42  1   
 44  23  43  1   
 45  23  44  1   
 46  25  27  1   
 47  27  28  1   
 48  27  45  1   
 49  27  46  1   
 50  28  47  1   
 51  28  48  1   
 52  28  49  1   
@<TRIPOS>SUBSTRUCTURE
  1 ****   9 GROUP 4 **** **** 0

# MOE 2024.06 (io_trps.svl 2023.06)
