@<TRIPOS>MOLECULE
1,6,7-Trimethyl-3-(2-methyl-benzyl)-8-(tetrahydro-furan-2-ylmethyl)-1H,8H-imidaz
59 63 1 0 0 
SMALL
USER_CHARGES


@<TRIPOS>ATOM
  1 O        1.3900    -0.7000     2.2790 O.2   1 <1>  -0.5740 
  2 C        2.0590     0.2680     1.9810 C.2   1 <1>   0.6870 
  3 N        1.4710     1.5210     1.8790 N.am  1 <1>  -0.4250 
  4 N        3.4220     0.1210     1.7570 N.am  1 <1>  -0.4410 
  5 C        2.2400     2.6660     1.7520 C.2   1 <1>   0.7000 
  6 C       -0.0080     1.6250     1.7270 C.3   1 <1>   0.2780 
  7 C        4.1690     1.2590     1.5290 C.2   1 <1>   0.4210 
  8 C        4.0660    -1.2240     1.8070 C.3   1 <1>   0.0540 
  9 O        1.7420     3.7720     1.8820 O.2   1 <1>  -0.5740 
 10 C        3.6370     2.5050     1.5110 C.2   1 <1>   0.2720 
 11 C       -0.3710     1.6120     0.2410 C.ar  1 <1>  -0.1500 
 12 N        5.5070     1.3430     1.2930 N.pl3 1 <1>  -0.7030 
 13 N        4.7010     3.3830     1.2360 N.pl3 1 <1>  -0.6320 
 14 C       -0.8520     2.7310    -0.4380 C.ar  1 <1>  -0.1500 
 15 C       -0.2130     0.4190    -0.4540 C.ar  1 <1>  -0.1560 
 16 C        5.7860     2.6310     1.1090 C.cat 1 <1>   1.0690 
 17 C        5.0920     4.6850     1.0120 C.2   1 <1>   0.2350 
 18 C       -1.1320     2.6380    -1.7940 C.ar  1 <1>  -0.1560 
 19 C       -1.1050     4.0720     0.2400 C.3   1 <1>  -0.1030 
 20 C       -0.4980     0.3360    -1.8040 C.ar  1 <1>  -0.1560 
 21 N        6.8730     3.3610     0.8230 N.pl3 1 <1>  -0.5710 
 22 C        6.4250     4.6740     0.7620 C.2   1 <1>   0.1590 
 23 C        4.0790     5.8130     1.0740 C.3   1 <1>  -0.1080 
 24 C       -0.9540     1.4500    -2.4770 C.ar  1 <1>  -0.1560 
 25 C        8.2820     2.8660     0.7030 C.3   1 <1>   0.1620 
 26 C        7.3640     5.8290     0.4570 C.3   1 <1>  -0.1080 
 27 C        8.4620     1.7540    -0.3490 C.3   1 <1>   0.1940 
 28 O        7.7380     0.6120    -0.0050 O.3   1 <1>  -0.5640 
 29 C        9.8970     1.2610    -0.4660 C.3   1 <1>  -0.1660 
 30 C        8.2670    -0.4960    -0.6710 C.3   1 <1>   0.1140 
 31 C        9.7320    -0.1710    -0.9450 C.3   1 <1>  -0.1660 
 32 H       -0.3590     2.5170     2.2110 H     1 <1>   0.0740 
 33 H       -0.4930     0.7970     2.2150 H     1 <1>   0.0740 
 34 H        3.3480    -1.9940     1.5770 H     1 <1>   0.0740 
 35 H        4.4560    -1.4020     2.7930 H     1 <1>   0.0740 
 36 H        4.8640    -1.2870     1.0890 H     1 <1>   0.0740 
 37 H        6.2080     0.6330     1.0400 H     1 <1>   0.4460 
 38 H        0.1280    -0.4680     0.0510 H     1 <1>   0.1440 
 39 H       -1.4970     3.4950    -2.3330 H     1 <1>   0.1440 
 40 H       -1.6500     3.9410     1.1570 H     1 <1>   0.0740 
 41 H       -1.6910     4.7140    -0.3920 H     1 <1>   0.0740 
 42 H       -0.1760     4.5700     0.4440 H     1 <1>   0.0740 
 43 H       -0.3680    -0.5950    -2.3270 H     1 <1>   0.1440 
 44 H        3.2990     5.6440     0.3530 H     1 <1>   0.0740 
 45 H        4.5400     6.7600     0.8650 H     1 <1>   0.0740 
 46 H        3.6370     5.8550     2.0530 H     1 <1>   0.0740 
 47 H       -1.1780     1.3930    -3.5280 H     1 <1>   0.1440 
 48 H        8.6110     2.5010     1.6610 H     1 <1>   0.0740 
 49 H        8.9260     3.6850     0.4350 H     1 <1>   0.0740 
 50 H        8.1340     5.8890     1.2050 H     1 <1>   0.0740 
 51 H        6.8330     6.7630     0.4450 H     1 <1>   0.0740 
 52 H        7.8210     5.6900    -0.5060 H     1 <1>   0.0740 
 53 H        8.1160     2.0880    -1.3140 H     1 <1>   0.0740 
 54 H       10.3770     1.2700     0.4980 H     1 <1>   0.0740 
 55 H       10.4730     1.8570    -1.1510 H     1 <1>   0.0740 
 56 H        7.7230    -0.6320    -1.5910 H     1 <1>   0.0740 
 57 H        8.1580    -1.3650    -0.0440 H     1 <1>   0.0740 
 58 H       10.3860    -0.8430    -0.4160 H     1 <1>   0.0740 
 59 H        9.9320    -0.2540    -2.0000 H     1 <1>   0.0740 
@<TRIPOS>BOND
  1   1   2  2   
  2   2   3  am  
  3   2   4  am  
  4   3   5  am  
  5   3   6  1   
  6   4   7  1   
  7   4   8  1   
  8   5   9  2   
  9   5  10  1   
 10   6  11  1   
 11   6  32  1   
 12   6  33  1   
 13   7  10  2   
 14   7  12  1   
 15   8  34  1   
 16   8  35  1   
 17   8  36  1   
 18  10  13  1   
 19  11  14  ar  
 20  11  15  ar  
 21  12  16  ar  
 22  12  37  1   
 23  13  16  ar  
 24  13  17  1   
 25  14  18  ar  
 26  14  19  1   
 27  15  20  ar  
 28  15  38  1   
 29  16  21  ar  
 30  17  22  2   
 31  17  23  1   
 32  18  24  ar  
 33  18  39  1   
 34  19  40  1   
 35  19  41  1   
 36  19  42  1   
 37  20  24  ar  
 38  20  43  1   
 39  21  22  1   
 40  21  25  1   
 41  22  26  1   
 42  23  44  1   
 43  23  45  1   
 44  23  46  1   
 45  24  47  1   
 46  25  27  1   
 47  25  48  1   
 48  25  49  1   
 49  26  50  1   
 50  26  51  1   
 51  26  52  1   
 52  27  28  1   
 53  27  29  1   
 54  27  53  1   
 55  28  30  1   
 56  29  31  1   
 57  29  54  1   
 58  29  55  1   
 59  30  31  1   
 60  30  56  1   
 61  30  57  1   
 62  31  58  1   
 63  31  59  1   
@<TRIPOS>SUBSTRUCTURE
  1 ****  10 GROUP 4 **** **** 0

# MOE 2024.06 (io_trps.svl 2023.06)
