@<TRIPOS>MOLECULE
Thiophene-2-sulfonic acid (1-methyl-butyl)-amide
29 29 1 0 0 
SMALL
USER_CHARGES


@<TRIPOS>ATOM
  1 S        0.0350    -0.2890     0.7330 S.o2  1 <1>   1.5000 
  2 O       -0.0110    -1.5660     0.0560 O.2   1 <1>  -0.6500 
  3 O        0.2650    -0.2310     2.1570 O.2   1 <1>  -0.6500 
  4 N        1.3270     0.5800     0.1130 N.am  1 <1>  -0.9140 
  5 C       -1.3850     0.7210     0.2510 C.2   1 <1>  -0.0220 
  6 C        2.5180    -0.2110    -0.0840 C.3   1 <1>   0.2760 
  7 S       -2.6460     1.0150     1.4480 S.3   1 <1>  -0.0800 
  8 C       -1.7240     1.3260    -0.9080 C.2   1 <1>  -0.1500 
  9 C        3.7130     0.6410     0.3670 C.3   1 <1>  -0.1600 
 10 C        2.5930    -0.5770    -1.5670 C.3   1 <1>  -0.2400 
 11 C       -3.5900     1.9650     0.3160 C.2   1 <1>  -0.1100 
 12 C       -2.9680     2.0320    -0.8730 C.2   1 <1>  -0.1500 
 13 C        5.0500    -0.1160     0.3260 C.3   1 <1>  -0.1600 
 14 C        6.1830     0.7410     0.8980 C.3   1 <1>  -0.2400 
 15 H        1.5400     1.2100     0.8810 H     1 <1>   0.4200 
 16 H        2.4840    -1.1070     0.5170 H     1 <1>   0.0800 
 17 H       -1.1300     1.2990    -1.8060 H     1 <1>   0.1500 
 18 H        3.5430     0.9580     1.3820 H     1 <1>   0.0800 
 19 H        3.7840     1.5170    -0.2540 H     1 <1>   0.0800 
 20 H        2.6890     0.3090    -2.1690 H     1 <1>   0.0800 
 21 H        1.7100    -1.1110    -1.8670 H     1 <1>   0.0800 
 22 H        3.4360    -1.2140    -1.7540 H     1 <1>   0.0800 
 23 H       -4.5210     2.3750     0.6680 H     1 <1>   0.1500 
 24 H       -3.3340     2.5530    -1.7420 H     1 <1>   0.1500 
 25 H        5.2970    -0.3810    -0.6870 H     1 <1>   0.0800 
 26 H        4.9720    -1.0250     0.9000 H     1 <1>   0.0800 
 27 H        6.2940     1.6480     0.3300 H     1 <1>   0.0800 
 28 H        7.1110     0.1980     0.8570 H     1 <1>   0.0800 
 29 H        5.9840     0.9960     1.9240 H     1 <1>   0.0800 
@<TRIPOS>BOND
  1   1   2  2   
  2   1   3  2   
  3   1   4  am  
  4   1   5  1   
  5   4   6  1   
  6   4  15  1   
  7   5   7  1   
  8   5   8  2   
  9   6   9  1   
 10   6  10  1   
 11   6  16  1   
 12   7  11  1   
 13   8  12  1   
 14   8  17  1   
 15   9  13  1   
 16   9  18  1   
 17   9  19  1   
 18  10  20  1   
 19  10  21  1   
 20  10  22  1   
 21  11  12  2   
 22  11  23  1   
 23  12  24  1   
 24  13  14  1   
 25  13  25  1   
 26  13  26  1   
 27  14  27  1   
 28  14  28  1   
 29  14  29  1   
@<TRIPOS>SUBSTRUCTURE
  1 ****   4 GROUP 4 **** **** 0

# MOE 2024.06 (io_trps.svl 2023.06)
