@<TRIPOS>MOLECULE
4-(2,4-Dimethyl-phenyl)-6-(1-methyl-1H-tetrazol-5-ylsulfanylmethyl)-2-oxo-1,2,3,
47 49 1 0 0 
SMALL
USER_CHARGES


@<TRIPOS>ATOM
  1 S       -0.7900    -1.6190     0.0760 S.3   1 <1>  -0.2860 
  2 C       -2.0270    -0.8050     1.0930 C.2   1 <1>   0.2420 
  3 C        0.8040    -0.9910     0.7780 C.3   1 <1>   0.2080 
  4 N       -1.7660    -0.0460     2.0820 N.2   1 <1>  -0.3380 
  5 N       -3.3260    -0.9290     0.9020 N.pl3 1 <1>   0.3140 
  6 C        1.9620    -1.7660     0.1430 C.2   1 <1>  -0.0290 
  7 N       -2.9630     0.3250     2.5340 N.2   1 <1>   0.0000 
  8 N       -3.9100    -0.2010     1.8320 N.2   1 <1>  -0.4180 
  9 C       -4.0550    -1.7000    -0.1160 C.3   1 <1>   0.0160 
 10 N        1.8440    -3.1430     0.2300 N.am  1 <1>  -0.5390 
 11 C        3.0480    -1.2120    -0.4690 C.2   1 <1>  -0.1240 
 12 C        2.7300    -4.0270    -0.2850 C.2   1 <1>   0.6900 
 13 C        3.3420     0.1790    -0.6310 C.2   1 <1>   0.7060 
 14 C        4.1280    -2.1260    -1.0620 C.3   1 <1>   0.5020 
 15 O        2.5750    -5.2150    -0.1230 O.2   1 <1>  -0.5700 
 16 N        3.7860    -3.5560    -0.9650 N.am  1 <1>  -0.7300 
 17 O        2.8750     1.0500     0.0750 O.2   1 <1>  -0.5700 
 18 O        4.1690     0.5460    -1.6190 O.3   1 <1>  -0.4300 
 19 C        5.4760    -1.9450    -0.3590 C.ar  1 <1>  -0.1430 
 20 C        4.5610     1.8930    -1.8000 C.3   1 <1>   0.0400 
 21 C        6.6630    -1.7210    -1.0570 C.ar  1 <1>  -0.1430 
 22 C        5.5150    -2.0110     1.0290 C.ar  1 <1>  -0.1500 
 23 C        7.8480    -1.5540    -0.3550 C.ar  1 <1>  -0.1500 
 24 C        6.7150    -1.6560    -2.5780 C.3   1 <1>  -0.0970 
 25 C        6.7010    -1.8440     1.7170 C.ar  1 <1>  -0.1500 
 26 C        7.8760    -1.6110     1.0270 C.ar  1 <1>  -0.1430 
 27 C        9.1840    -1.4260     1.7750 C.3   1 <1>  -0.0970 
 28 H        0.7720    -1.1550     1.8410 H     1 <1>   0.0800 
 29 H        0.8220     0.0630     0.5800 H     1 <1>   0.0800 
 30 H       -3.7810    -1.3440    -1.0920 H     1 <1>   0.0800 
 31 H       -5.1120    -1.5720     0.0310 H     1 <1>   0.0800 
 32 H       -3.8010    -2.7390    -0.0230 H     1 <1>   0.0800 
 33 H        1.0290    -3.5820     0.6600 H     1 <1>   0.3700 
 34 H        4.2150    -1.8960    -2.1080 H     1 <1>   0.0800 
 35 H        4.5490    -4.2080    -1.1310 H     1 <1>   0.3700 
 36 H        3.6840     2.4910    -1.9810 H     1 <1>   0.0800 
 37 H        5.2260     1.9460    -2.6430 H     1 <1>   0.0800 
 38 H        5.0640     2.2300    -0.9100 H     1 <1>   0.0800 
 39 H        4.6140    -2.1980     1.5880 H     1 <1>   0.1500 
 40 H        8.7660    -1.3790    -0.8870 H     1 <1>   0.1500 
 41 H        6.1640    -0.8040    -2.9320 H     1 <1>   0.0800 
 42 H        6.2990    -2.5510    -3.0040 H     1 <1>   0.0800 
 43 H        7.7280    -1.5650    -2.9260 H     1 <1>   0.0800 
 44 H        6.7040    -1.8990     2.7910 H     1 <1>   0.1500 
 45 H        9.7040    -2.3650     1.8350 H     1 <1>   0.0800 
 46 H        9.0020    -1.0660     2.7720 H     1 <1>   0.0800 
 47 H        9.8080    -0.7140     1.2660 H     1 <1>   0.0800 
@<TRIPOS>BOND
  1   1   2  1   
  2   1   3  1   
  3   2   4  2   
  4   2   5  1   
  5   3   6  1   
  6   3  28  1   
  7   3  29  1   
  8   4   7  1   
  9   5   8  1   
 10   5   9  1   
 11   6  10  1   
 12   6  11  2   
 13   7   8  2   
 14   9  30  1   
 15   9  31  1   
 16   9  32  1   
 17  10  12  am  
 18  10  33  1   
 19  11  13  1   
 20  11  14  1   
 21  12  15  2   
 22  12  16  am  
 23  13  17  2   
 24  13  18  1   
 25  14  16  1   
 26  14  19  1   
 27  14  34  1   
 28  16  35  1   
 29  18  20  1   
 30  19  21  ar  
 31  19  22  ar  
 32  20  36  1   
 33  20  37  1   
 34  20  38  1   
 35  21  23  ar  
 36  21  24  1   
 37  22  25  ar  
 38  22  39  1   
 39  23  26  ar  
 40  23  40  1   
 41  24  41  1   
 42  24  42  1   
 43  24  43  1   
 44  25  26  ar  
 45  25  44  1   
 46  26  27  1   
 47  27  45  1   
 48  27  46  1   
 49  27  47  1   
@<TRIPOS>SUBSTRUCTURE
  1 ****  11 GROUP 4 **** **** 0

# MOE 2024.06 (io_trps.svl 2023.06)
