@<TRIPOS>MOLECULE
3-[3-(2,3-Dihydro-benzo[1,4]dioxin-6-yl)-4-(piperidine-1-carbonyl)-pyrazol-1-yl]
49 52 1 0 0 
SMALL
USER_CHARGES


@<TRIPOS>ATOM
  1 O        0.7300    -0.3430     1.9550 O.2   1 <1>  -0.5700 
  2 C        1.1200    -1.0980     1.0840 C.2   1 <1>   0.7160 
  3 N        2.2350    -0.7580     0.3430 N.am  1 <1>  -0.6600 
  4 C        0.4110    -2.3250     0.8420 C.2   1 <1>  -0.0860 
  5 C        3.0870     0.4120     0.6930 C.3   1 <1>   0.1400 
  6 C        2.6780    -1.4940    -0.8730 C.3   1 <1>   0.1400 
  7 C       -0.9080    -2.4490     0.3720 C.2   1 <1>   0.2350 
  8 C        0.8250    -3.6100     1.0160 C.2   1 <1>  -0.3020 
  9 C        4.5340    -0.0520     0.8940 C.3   1 <1>  -0.1600 
 10 C        4.1150    -1.9850    -0.6770 C.3   1 <1>  -0.1600 
 11 N       -1.2550    -3.7090     0.2810 N.2   1 <1>  -0.7070 
 12 C       -1.8000    -1.3650     0.0140 C.ar  1 <1>   0.0540 
 13 N       -0.1910    -4.4120     0.6810 N.pl3 1 <1>   0.3140 
 14 C        5.0600    -0.8280    -0.3240 C.3   1 <1>  -0.1600 
 15 C       -3.1490    -1.4280     0.3600 C.ar  1 <1>  -0.1500 
 16 C       -1.3660    -0.2410    -0.6930 C.ar  1 <1>  -0.1500 
 17 C       -0.2090    -5.8850     0.7370 C.3   1 <1>   0.0960 
 18 C       -4.0270    -0.4150     0.0250 C.ar  1 <1>   0.0830 
 19 C       -2.2330     0.7850    -1.0280 C.ar  1 <1>  -0.1500 
 20 C       -0.8550    -6.4680    -0.5230 C.3   1 <1>   0.0400 
 21 O       -5.3340    -0.5360     0.3720 O.3   1 <1>  -0.3630 
 22 C       -3.5650     0.7070    -0.6650 C.ar  1 <1>   0.0830 
 23 C       -0.7630    -7.9490    -0.4920 C.1   1 <1>   0.3570 
 24 C       -6.2450     0.3450    -0.2570 C.3   1 <1>   0.1200 
 25 O       -4.3980     1.7290    -0.9860 O.3   1 <1>  -0.3630 
 26 N       -0.6660    -9.0800    -0.4400 N.1   1 <1>  -0.5570 
 27 C       -5.6510     1.7590    -0.3310 C.3   1 <1>   0.1200 
 28 H        2.7360     0.8880     1.5940 H     1 <1>   0.0800 
 29 H        3.0380     1.1320    -0.1040 H     1 <1>   0.0800 
 30 H        2.6370    -0.8250    -1.7160 H     1 <1>   0.0800 
 31 H        2.0330    -2.3280    -1.0850 H     1 <1>   0.0800 
 32 H        1.7760    -3.9630     1.3700 H     1 <1>   0.1500 
 33 H        4.5770    -0.6770     1.7690 H     1 <1>   0.0800 
 34 H        5.1590     0.8050     1.0740 H     1 <1>   0.0800 
 35 H        4.4540    -2.4640    -1.5790 H     1 <1>   0.0800 
 36 H        4.1290    -2.7190     0.1100 H     1 <1>   0.0800 
 37 H        6.0440    -1.2110    -0.1130 H     1 <1>   0.0800 
 38 H        5.1370    -0.1600    -1.1650 H     1 <1>   0.0800 
 39 H       -3.5160    -2.2850     0.8950 H     1 <1>   0.1500 
 40 H       -0.3360    -0.1650    -0.9900 H     1 <1>   0.1500 
 41 H       -0.7650    -6.1810     1.6080 H     1 <1>   0.0800 
 42 H        0.8020    -6.2370     0.8330 H     1 <1>   0.0800 
 43 H       -1.8840     1.6470    -1.5650 H     1 <1>   0.1500 
 44 H       -0.3510    -6.1090    -1.4010 H     1 <1>   0.0800 
 45 H       -1.8930    -6.1890    -0.5740 H     1 <1>   0.0800 
 46 H       -7.1560     0.3410     0.3130 H     1 <1>   0.0800 
 47 H       -6.4440    -0.0290    -1.2450 H     1 <1>   0.0800 
 48 H       -5.5020     2.1530     0.6580 H     1 <1>   0.0800 
 49 H       -6.2980     2.4180    -0.8820 H     1 <1>   0.0800 
@<TRIPOS>BOND
  1   1   2  2   
  2   2   3  am  
  3   2   4  1   
  4   3   5  1   
  5   3   6  1   
  6   4   7  1   
  7   4   8  2   
  8   5   9  1   
  9   5  28  1   
 10   5  29  1   
 11   6  10  1   
 12   6  30  1   
 13   6  31  1   
 14   7  11  2   
 15   7  12  1   
 16   8  13  1   
 17   8  32  1   
 18   9  14  1   
 19   9  33  1   
 20   9  34  1   
 21  10  14  1   
 22  10  35  1   
 23  10  36  1   
 24  11  13  1   
 25  12  15  ar  
 26  12  16  ar  
 27  13  17  1   
 28  14  37  1   
 29  14  38  1   
 30  15  18  ar  
 31  15  39  1   
 32  16  19  ar  
 33  16  40  1   
 34  17  20  1   
 35  17  41  1   
 36  17  42  1   
 37  18  21  1   
 38  18  22  ar  
 39  19  22  ar  
 40  19  43  1   
 41  20  23  1   
 42  20  44  1   
 43  20  45  1   
 44  21  24  1   
 45  22  25  1   
 46  23  26  3   
 47  24  27  1   
 48  24  46  1   
 49  24  47  1   
 50  25  27  1   
 51  27  48  1   
 52  27  49  1   
@<TRIPOS>SUBSTRUCTURE
  1 ****   7 GROUP 4 **** **** 0

# MOE 2024.06 (io_trps.svl 2023.06)
