@<TRIPOS>MOLECULE
8-Amino-7-(2-hydroxy-3-m-tolyloxy-propyl)-1,3-dimethyl-3,7-dihydro-purine-2,6-di
48 50 1 0 0 
SMALL
USER_CHARGES


@<TRIPOS>ATOM
  1 O        0.7610     0.6330    -1.0710 O.2   1 <1>  -0.5750 
  2 C        1.7800     1.1650    -0.6820 C.2   1 <1>   0.6860 
  3 N        1.8320     2.5470    -0.5370 N.am  1 <1>  -0.4260 
  4 N        2.8930     0.3900    -0.3810 N.am  1 <1>  -0.4420 
  5 C        2.9900     3.1830    -0.1100 C.2   1 <1>   0.6990 
  6 C        0.6190     3.3540    -0.8850 C.3   1 <1>   0.0520 
  7 C        4.0270     1.0330     0.0790 C.2   1 <1>   0.4200 
  8 C        2.8530    -1.0950    -0.5310 C.3   1 <1>   0.0520 
  9 O        3.0430     4.3990    -0.0320 O.2   1 <1>  -0.5750 
 10 C        4.1210     2.3720     0.2300 C.2   1 <1>   0.2700 
 11 N        5.2110     0.4690     0.4460 N.pl3 1 <1>  -0.7040 
 12 N        5.4210     2.6240     0.7160 N.pl3 1 <1>  -0.7680 
 13 C        6.0310     1.4460     0.8040 C.cat 1 <1>   1.0690 
 14 C        5.9240     3.9730     1.1430 C.3   1 <1>   0.3480 
 15 N        7.2730     1.2590     1.1770 N.pl3 1 <1>  -0.8400 
 16 C        7.0330     4.5250     0.2250 C.3   1 <1>   0.1920 
 17 O        8.1780     3.7320     0.3200 O.3   1 <1>  -0.6840 
 18 C        7.4140     5.9670     0.5860 C.3   1 <1>   0.1120 
 19 O        8.5890     6.3110    -0.1180 O.3   1 <1>  -0.3690 
 20 C        9.1620     7.5320     0.0280 C.ar  1 <1>   0.0740 
 21 C       10.3300     7.7630    -0.6820 C.ar  1 <1>  -0.1580 
 22 C        8.6440     8.5380     0.8400 C.ar  1 <1>  -0.1580 
 23 C       10.9870     8.9790    -0.5900 C.ar  1 <1>  -0.1510 
 24 C        9.2970     9.7540     0.9320 C.ar  1 <1>  -0.1580 
 25 C       10.4640     9.9730     0.2200 C.ar  1 <1>  -0.1580 
 26 C       12.2650     9.2290    -1.3680 C.3   1 <1>  -0.1050 
 27 H       -0.2710     2.8470    -0.5530 H     1 <1>   0.0720 
 28 H        0.5660     3.4830    -1.9520 H     1 <1>   0.0720 
 29 H        0.6480     4.3220    -0.4150 H     1 <1>   0.0720 
 30 H        2.0750    -1.3870    -1.2180 H     1 <1>   0.0720 
 31 H        2.6540    -1.5520     0.4230 H     1 <1>   0.0720 
 32 H        3.7880    -1.4600    -0.9180 H     1 <1>   0.0720 
 33 H        5.4350    -0.5220     0.4350 H     1 <1>   0.4440 
 34 H        6.3010     3.9120     2.1500 H     1 <1>   0.0720 
 35 H        5.1110     4.6750     1.1570 H     1 <1>   0.0720 
 36 H        7.8960     2.0820     1.1590 H     1 <1>   0.4440 
 37 H        7.7500     0.3630     1.2090 H     1 <1>   0.4440 
 38 H        6.6980     4.5080    -0.7980 H     1 <1>   0.0720 
 39 H        8.9260     4.2700    -0.0400 H     1 <1>   0.3940 
 40 H        7.6140     6.0580     1.6400 H     1 <1>   0.0720 
 41 H        6.6320     6.6490     0.3010 H     1 <1>   0.0720 
 42 H       10.7210     6.9830    -1.3080 H     1 <1>   0.1420 
 43 H        7.7420     8.4010     1.4030 H     1 <1>   0.1420 
 44 H        8.8980    10.5330     1.5570 H     1 <1>   0.1420 
 45 H       10.9640    10.9230     0.2980 H     1 <1>   0.1420 
 46 H       12.6950     8.3030    -1.7050 H     1 <1>   0.0720 
 47 H       12.9850     9.7310    -0.7470 H     1 <1>   0.0720 
 48 H       12.0550     9.8450    -2.2240 H     1 <1>   0.0720 
@<TRIPOS>BOND
  1   1   2  2   
  2   2   3  am  
  3   2   4  am  
  4   3   5  am  
  5   3   6  1   
  6   4   7  1   
  7   4   8  1   
  8   5   9  2   
  9   5  10  1   
 10   6  27  1   
 11   6  28  1   
 12   6  29  1   
 13   7  10  2   
 14   7  11  1   
 15   8  30  1   
 16   8  31  1   
 17   8  32  1   
 18  10  12  1   
 19  11  13  ar  
 20  11  33  1   
 21  12  13  ar  
 22  12  14  1   
 23  13  15  ar  
 24  14  16  1   
 25  14  34  1   
 26  14  35  1   
 27  15  36  1   
 28  15  37  1   
 29  16  17  1   
 30  16  18  1   
 31  16  38  1   
 32  17  39  1   
 33  18  19  1   
 34  18  40  1   
 35  18  41  1   
 36  19  20  1   
 37  20  21  ar  
 38  20  22  ar  
 39  21  23  ar  
 40  21  42  1   
 41  22  24  ar  
 42  22  43  1   
 43  23  25  ar  
 44  23  26  1   
 45  24  25  ar  
 46  24  44  1   
 47  25  45  1   
 48  26  46  1   
 49  26  47  1   
 50  26  48  1   
@<TRIPOS>SUBSTRUCTURE
  1 ****  16 GROUP 4 **** **** 0

# MOE 2024.06 (io_trps.svl 2023.06)
