@<TRIPOS>MOLECULE
(3-Hydroxy-3-trifluoromethyl-3,3a,4,5,6,7-hexahydro-indazol-2-yl)-thiophen-2-yl-
34 36 1 0 0 
SMALL
USER_CHARGES


@<TRIPOS>ATOM
  1 S        0.5670     0.8020     0.3930 S.3   1 <1>  -0.0800 
  2 C       -1.1610     1.1880     0.4130 C.2   1 <1>  -0.0450 
  3 C        0.2720    -0.8800     0.0150 C.2   1 <1>  -0.1100 
  4 C       -1.5540     2.5490     0.7010 C.2   1 <1>   0.7150 
  5 C       -1.8490     0.0460     0.1420 C.2   1 <1>  -0.1500 
  6 C       -1.0480    -1.1110    -0.0820 C.2   1 <1>  -0.1500 
  7 O       -0.7200     3.3760     1.0330 O.2   1 <1>  -0.5700 
  8 N       -2.8770     2.9720     0.6040 N.am  1 <1>  -0.2980 
  9 N       -3.8770     2.3780    -0.1480 N.2   1 <1>  -0.5120 
 10 C       -3.3400     4.2790     1.1790 C.3   1 <1>   0.5800 
 11 C       -4.9080     3.0980    -0.1370 C.2   1 <1>   0.3280 
 12 O       -2.6000     5.2770     0.5240 O.3   1 <1>  -0.6800 
 13 C       -3.2550     4.3620     2.7600 C.3   1 <1>   1.0200 
 14 C       -4.8170     4.3420     0.7060 C.3   1 <1>  -0.0190 
 15 C       -6.1910     2.8520    -0.9100 C.3   1 <1>  -0.0990 
 16 F       -3.9200     5.4070     3.2500 F     1 <1>  -0.3400 
 17 F       -2.0230     4.4700     3.2480 F     1 <1>  -0.3400 
 18 F       -3.7870     3.2960     3.3560 F     1 <1>  -0.3400 
 19 C       -5.3050     5.5470    -0.1280 C.3   1 <1>  -0.1600 
 20 C       -7.2690     3.8950    -0.5660 C.3   1 <1>  -0.1600 
 21 C       -6.7440     5.3450    -0.6560 C.3   1 <1>  -0.1600 
 22 H        1.1270    -1.5240    -0.0950 H     1 <1>   0.1500 
 23 H       -2.9220    -0.0240     0.0900 H     1 <1>   0.1500 
 24 H       -1.4990    -2.0630    -0.3070 H     1 <1>   0.1500 
 25 H       -1.6480     5.0290     0.6010 H     1 <1>   0.4000 
 26 H       -5.4770     4.2130     1.5450 H     1 <1>   0.0800 
 27 H       -6.5520     1.8610    -0.6980 H     1 <1>   0.0800 
 28 H       -5.9650     2.9070    -1.9600 H     1 <1>   0.0800 
 29 H       -4.6520     5.6710    -0.9770 H     1 <1>   0.0800 
 30 H       -5.2500     6.4490     0.4560 H     1 <1>   0.0800 
 31 H       -7.6160     3.7130     0.4380 H     1 <1>   0.0800 
 32 H       -8.1150     3.7750    -1.2210 H     1 <1>   0.0800 
 33 H       -6.7750     5.6640    -1.6850 H     1 <1>   0.0800 
 34 H       -7.4160     5.9850    -0.1100 H     1 <1>   0.0800 
@<TRIPOS>BOND
  1   1   2  1   
  2   1   3  1   
  3   2   4  1   
  4   2   5  2   
  5   3   6  2   
  6   3  22  1   
  7   4   7  2   
  8   4   8  am  
  9   5   6  1   
 10   5  23  1   
 11   6  24  1   
 12   8   9  1   
 13   8  10  1   
 14   9  11  2   
 15  10  12  1   
 16  10  13  1   
 17  10  14  1   
 18  11  14  1   
 19  11  15  1   
 20  12  25  1   
 21  13  16  1   
 22  13  17  1   
 23  13  18  1   
 24  14  19  1   
 25  14  26  1   
 26  15  20  1   
 27  15  27  1   
 28  15  28  1   
 29  19  21  1   
 30  19  29  1   
 31  19  30  1   
 32  20  21  1   
 33  20  31  1   
 34  20  32  1   
 35  21  33  1   
 36  21  34  1   
@<TRIPOS>SUBSTRUCTURE
  1 ****   8 GROUP 4 **** **** 0

# MOE 2024.06 (io_trps.svl 2023.06)
