@<TRIPOS>MOLECULE
1-Cyclopropyl-4-hydroxy-2-oxo-1,2,5,6,7,8-hexahydro-quinoline-3-carboxylic acid
42 45 1 0 0 
SMALL
USER_CHARGES


@<TRIPOS>ATOM
  1 O       -0.3130     0.3660    -0.6670 O.3   1 <1>  -0.8500 
  2 C       -1.3390     0.9590    -0.3100 C.2   1 <1>  -0.0500 
  3 N       -2.5110     0.2100    -0.2030 N.pl3 1 <1>  -0.3690 
  4 C       -1.3510     2.3590    -0.0360 C.2   1 <1>   0.0290 
  5 C       -3.7440     0.8530    -0.1160 C.2   1 <1>  -0.0380 
  6 C       -2.4070    -1.2780    -0.2610 C.3   1 <1>   0.0690 
  7 C       -2.5890     2.9460     0.3020 C.2   1 <1>   0.5410 
  8 C       -0.1610     3.1380    -0.0970 C.2   1 <1>   0.6160 
  9 C       -3.7970     2.1830     0.1550 C.2   1 <1>  -0.1240 
 10 C       -5.0090     0.0260    -0.3540 C.3   1 <1>  -0.0220 
 11 C       -2.9850    -2.1190     0.8420 C.3   1 <1>  -0.2000 
 12 C       -1.5070    -1.9840     0.7110 C.3   1 <1>  -0.2000 
 13 O       -2.6980     4.1030     0.7450 O.2   1 <1>  -0.5700 
 14 O       -0.1410     4.3600    -0.2470 O.2   1 <1>  -0.5700 
 15 N        1.0590     2.5000    -0.0260 N.am  1 <1>  -0.5470 
 16 C       -5.1250     2.9380     0.2930 C.3   1 <1>  -0.0220 
 17 C       -6.2360     0.8920    -0.6560 C.3   1 <1>  -0.1600 
 18 C        2.3920     2.9270    -0.0820 C.ar  1 <1>   0.1170 
 19 C       -6.3480     2.0170     0.3720 C.3   1 <1>  -0.1600 
 20 C        3.3830     2.0510    -0.5260 C.ar  1 <1>   0.1600 
 21 C        2.7880     4.1970     0.3030 C.ar  1 <1>  -0.1500 
 22 N        4.6800     2.3240    -0.6140 N.ar  1 <1>  -0.6200 
 23 C        4.1280     4.5050     0.2170 C.ar  1 <1>  -0.1500 
 24 C        5.0180     3.5480    -0.2410 C.ar  1 <1>   0.1600 
 25 H       -2.3780    -1.6330    -1.2750 H     1 <1>   0.1000 
 26 H       -5.2070    -0.5640     0.5200 H     1 <1>   0.0800 
 27 H       -4.8530    -0.6390    -1.1850 H     1 <1>   0.0800 
 28 H       -3.4360    -3.0620     0.5920 H     1 <1>   0.1000 
 29 H       -3.4480    -1.6370     1.6840 H     1 <1>   0.1000 
 30 H       -0.9450    -1.3490     1.3730 H     1 <1>   0.1000 
 31 H       -0.9230    -2.8000     0.3290 H     1 <1>   0.1000 
 32 H        0.8670     1.4890    -0.2000 H     1 <1>   0.3700 
 33 H       -5.2240     3.5910    -0.5560 H     1 <1>   0.0800 
 34 H       -5.1070     3.5520     1.1760 H     1 <1>   0.0800 
 35 H       -7.1220     0.2820    -0.6370 H     1 <1>   0.0800 
 36 H       -6.1390     1.3150    -1.6420 H     1 <1>   0.0800 
 37 H       -7.2420     2.5900     0.2020 H     1 <1>   0.0800 
 38 H       -6.4050     1.5910     1.3590 H     1 <1>   0.0800 
 39 H        3.0680     1.0650    -0.8240 H     1 <1>   0.1500 
 40 H        2.0690     4.9130     0.6580 H     1 <1>   0.1500 
 41 H        4.4800     5.4790     0.5010 H     1 <1>   0.1500 
 42 H        6.0620     3.8020    -0.3040 H     1 <1>   0.1500 
@<TRIPOS>BOND
  1   1   2  1   
  2   2   3  1   
  3   2   4  2   
  4   3   5  1   
  5   3   6  1   
  6   4   7  1   
  7   4   8  1   
  8   5   9  2   
  9   5  10  1   
 10   6  11  1   
 11   6  12  1   
 12   6  25  1   
 13   7   9  1   
 14   7  13  2   
 15   8  14  2   
 16   8  15  am  
 17   9  16  1   
 18  10  17  1   
 19  10  26  1   
 20  10  27  1   
 21  11  12  1   
 22  11  28  1   
 23  11  29  1   
 24  12  30  1   
 25  12  31  1   
 26  15  18  1   
 27  15  32  1   
 28  16  19  1   
 29  16  33  1   
 30  16  34  1   
 31  17  19  1   
 32  17  35  1   
 33  17  36  1   
 34  18  20  ar  
 35  18  21  ar  
 36  19  37  1   
 37  19  38  1   
 38  20  22  ar  
 39  20  39  1   
 40  21  23  ar  
 41  21  40  1   
 42  22  24  ar  
 43  23  24  ar  
 44  23  41  1   
 45  24  42  1   
@<TRIPOS>SUBSTRUCTURE
  1 ****   4 GROUP 4 **** **** 0

# MOE 2024.06 (io_trps.svl 2023.06)
