@<TRIPOS>MOLECULE
N-(5-Cyclohexylcarbamoylmethylsulfanyl-4-methyl-4H-[1,2,4]triazol-3-ylmethyl)-4-
56 58 1 0 0 
SMALL
USER_CHARGES


@<TRIPOS>ATOM
  1 S       -0.7180     0.0230    -2.5390 S.3   1 <1>  -0.2860 
  2 C       -0.9980     0.8320    -0.9640 C.2   1 <1>   0.2420 
  3 C       -2.1380    -1.1630    -2.6250 C.3   1 <1>   0.1310 
  4 N       -0.7150     0.2960     0.1690 N.2   1 <1>  -0.3380 
  5 N       -1.5610     2.0350    -0.8640 N.pl3 1 <1>   0.0480 
  6 C       -3.4440    -0.4360    -2.3250 C.2   1 <1>   0.5690 
  7 N       -1.1050     1.1790     1.0930 N.2   1 <1>  -0.3380 
  8 C       -1.6040     2.1960     0.4690 C.2   1 <1>   0.0060 
  9 C       -2.0570     2.9110    -1.9480 C.3   1 <1>   0.0160 
 10 O       -3.8580     0.3740    -3.1170 O.2   1 <1>  -0.5700 
 11 N       -4.1570    -0.6680    -1.1970 N.am  1 <1>  -0.7300 
 12 C       -2.1810     3.4100     1.1740 C.3   1 <1>   0.3200 
 13 C       -3.7490    -1.3820     0.0250 C.3   1 <1>   0.2200 
 14 N       -1.4340     4.6250     0.7860 N.am  1 <1>  -0.7300 
 15 C       -4.3280    -2.8000    -0.0010 C.3   1 <1>  -0.1600 
 16 C       -4.2590    -0.6040     1.2410 C.3   1 <1>  -0.1600 
 17 C       -1.8550     5.9110     0.9000 C.2   1 <1>   0.5440 
 18 C       -3.9940    -3.5510     1.2970 C.3   1 <1>  -0.1600 
 19 C       -3.9140    -1.3410     2.5420 C.3   1 <1>  -0.1600 
 20 O       -0.9840     6.7510     0.9520 O.2   1 <1>  -0.5700 
 21 C       -3.2540     6.2810     0.9810 C.ar  1 <1>   0.0860 
 22 C       -4.4710    -2.7710     2.5310 C.3   1 <1>  -0.1600 
 23 C       -3.7150     7.0940     2.0160 C.ar  1 <1>  -0.1500 
 24 C       -4.1870     5.8480     0.0380 C.ar  1 <1>  -0.1500 
 25 C       -5.0490     7.4420     2.1160 C.ar  1 <1>  -0.1500 
 26 C       -5.5240     6.1910     0.1310 C.ar  1 <1>  -0.1500 
 27 C       -5.9650     6.9930     1.1800 C.ar  1 <1>   0.0830 
 28 O       -7.2510     7.3750     1.3480 O.3   1 <1>  -0.3620 
 29 C       -8.2580     7.0330     0.4220 C.3   1 <1>   0.0400 
 30 H       -1.9390    -1.9490    -1.9230 H     1 <1>   0.0800 
 31 H       -2.1540    -1.5600    -3.6230 H     1 <1>   0.0800 
 32 H       -1.6440     2.6000    -2.8910 H     1 <1>   0.0800 
 33 H       -1.7630     3.9270    -1.7600 H     1 <1>   0.0800 
 34 H       -3.1280     2.8420    -1.9980 H     1 <1>   0.0800 
 35 H       -5.0530    -0.1850    -1.1300 H     1 <1>   0.3700 
 36 H       -2.0970     3.2720     2.2380 H     1 <1>   0.0800 
 37 H       -3.2230     3.5080     0.9270 H     1 <1>   0.0800 
 38 H       -2.6760    -1.4400     0.0800 H     1 <1>   0.0800 
 39 H       -0.4160     4.5100     0.8070 H     1 <1>   0.3700 
 40 H       -3.9230    -3.3410    -0.8370 H     1 <1>   0.0800 
 41 H       -5.3970    -2.7500    -0.1120 H     1 <1>   0.0800 
 42 H       -5.3260    -0.4860     1.1780 H     1 <1>   0.0800 
 43 H       -3.8040     0.3700     1.2590 H     1 <1>   0.0800 
 44 H       -2.9280    -3.6940     1.3610 H     1 <1>   0.0800 
 45 H       -4.4560    -4.5230     1.2830 H     1 <1>   0.0800 
 46 H       -4.3160    -0.8020     3.3820 H     1 <1>   0.0800 
 47 H       -2.8420    -1.3740     2.6550 H     1 <1>   0.0800 
 48 H       -4.1600    -3.2850     3.4240 H     1 <1>   0.0800 
 49 H       -5.5470    -2.7330     2.5330 H     1 <1>   0.0800 
 50 H       -3.0100     7.4580     2.7450 H     1 <1>   0.1500 
 51 H       -3.8540     5.2400    -0.7840 H     1 <1>   0.1500 
 52 H       -5.3900     8.0690     2.9210 H     1 <1>   0.1500 
 53 H       -6.2070     5.8340    -0.6170 H     1 <1>   0.1500 
 54 H       -9.1810     7.4720     0.7570 H     1 <1>   0.0800 
 55 H       -8.3540     5.9620     0.3880 H     1 <1>   0.0800 
 56 H       -7.9950     7.4290    -0.5430 H     1 <1>   0.0800 
@<TRIPOS>BOND
  1   1   2  1   
  2   1   3  1   
  3   2   4  2   
  4   2   5  1   
  5   3   6  1   
  6   3  30  1   
  7   3  31  1   
  8   4   7  1   
  9   5   8  1   
 10   5   9  1   
 11   6  10  2   
 12   6  11  am  
 13   7   8  2   
 14   8  12  1   
 15   9  32  1   
 16   9  33  1   
 17   9  34  1   
 18  11  13  1   
 19  11  35  1   
 20  12  14  1   
 21  12  36  1   
 22  12  37  1   
 23  13  15  1   
 24  13  16  1   
 25  13  38  1   
 26  14  17  am  
 27  14  39  1   
 28  15  18  1   
 29  15  40  1   
 30  15  41  1   
 31  16  19  1   
 32  16  42  1   
 33  16  43  1   
 34  17  20  2   
 35  17  21  1   
 36  18  22  1   
 37  18  44  1   
 38  18  45  1   
 39  19  22  1   
 40  19  46  1   
 41  19  47  1   
 42  21  23  ar  
 43  21  24  ar  
 44  22  48  1   
 45  22  49  1   
 46  23  25  ar  
 47  23  50  1   
 48  24  26  ar  
 49  24  51  1   
 50  25  27  ar  
 51  25  52  1   
 52  26  27  ar  
 53  26  53  1   
 54  27  28  1   
 55  28  29  1   
 56  29  54  1   
 57  29  55  1   
 58  29  56  1   
@<TRIPOS>SUBSTRUCTURE
  1 ****   8 GROUP 4 **** **** 0

# MOE 2024.06 (io_trps.svl 2023.06)
