@<TRIPOS>MOLECULE
1-(4-Ethoxy-5-isopropyl-2-methyl-benzenesulfonyl)-piperidine-4-carboxylic acid a
53 54 1 0 0 
SMALL
USER_CHARGES


@<TRIPOS>ATOM
  1 S       -0.6410     0.0310    -1.2490 S.o2  1 <1>   1.4470 
  2 O       -1.2850     1.3200    -1.0820 O.2   1 <1>  -0.6500 
  3 O       -0.8680    -0.6870    -2.4840 O.2   1 <1>  -0.6500 
  4 N       -1.2650    -0.9430    -0.0050 N.am  1 <1>  -0.8490 
  5 C        1.1510     0.1000    -0.9180 C.ar  1 <1>  -0.0090 
  6 C       -1.1080    -0.4130     1.3580 C.3   1 <1>   0.1960 
  7 C       -2.5750    -1.5260    -0.3400 C.3   1 <1>   0.1960 
  8 C        1.9500     1.2070    -1.2110 C.ar  1 <1>  -0.1440 
  9 C        1.7750    -1.0120    -0.3620 C.ar  1 <1>  -0.1500 
 10 C       -2.2880     0.4640     1.7970 C.3   1 <1>  -0.1600 
 11 C       -3.5320    -1.5570     0.8560 C.3   1 <1>  -0.1600 
 12 C        3.3030     1.1890    -0.9140 C.ar  1 <1>  -0.1500 
 13 C        1.3770     2.4590    -1.8650 C.3   1 <1>  -0.0970 
 14 C        3.1270    -1.0480    -0.0580 C.ar  1 <1>  -0.1430 
 15 C       -3.6730    -0.1610     1.4920 C.3   1 <1>  -0.0190 
 16 C        3.9020     0.0750    -0.3340 C.ar  1 <1>   0.0820 
 17 C        3.7260    -2.3150     0.5670 C.3   1 <1>   0.0630 
 18 C       -4.5750     0.7420     0.6450 C.2   1 <1>   0.5690 
 19 O        5.2250     0.0390    -0.0280 O.3   1 <1>  -0.3630 
 20 C        3.5920    -3.5080    -0.3860 C.3   1 <1>  -0.2400 
 21 C        3.0690    -2.6240     1.9170 C.3   1 <1>  -0.2400 
 22 O       -5.7460     0.8120     0.9120 O.2   1 <1>  -0.5700 
 23 N       -4.0880     1.4400    -0.3980 N.am  1 <1>  -0.8000 
 24 C        6.0980     1.1070    -0.3110 C.3   1 <1>   0.1200 
 25 C        7.4970     0.7040     0.1450 C.3   1 <1>  -0.2400 
 26 H       -0.1890     0.1420     1.4460 H     1 <1>   0.0800 
 27 H       -1.0350    -1.2500     2.0330 H     1 <1>   0.0800 
 28 H       -2.4240    -2.5250    -0.7150 H     1 <1>   0.0800 
 29 H       -3.0400    -0.9580    -1.1290 H     1 <1>   0.0800 
 30 H        1.1760    -1.8830    -0.1630 H     1 <1>   0.1500 
 31 H       -2.1890     1.4360     1.3510 H     1 <1>   0.0800 
 32 H       -2.2080     0.6190     2.8580 H     1 <1>   0.0800 
 33 H       -3.1670    -2.2620     1.5820 H     1 <1>   0.0800 
 34 H       -4.4970    -1.9050     0.5300 H     1 <1>   0.0800 
 35 H        3.8890     2.0580    -1.1420 H     1 <1>   0.1500 
 36 H        0.7690     2.9990    -1.1620 H     1 <1>   0.0800 
 37 H        0.7770     2.1980    -2.7190 H     1 <1>   0.0800 
 38 H        2.1600     3.1140    -2.2040 H     1 <1>   0.0800 
 39 H       -4.1840    -0.2930     2.4300 H     1 <1>   0.0800 
 40 H        4.7760    -2.1740     0.7520 H     1 <1>   0.0800 
 41 H        2.5610    -3.7520    -0.5630 H     1 <1>   0.0800 
 42 H        4.0830    -4.3710     0.0290 H     1 <1>   0.0800 
 43 H        4.0560    -3.2730    -1.3270 H     1 <1>   0.0800 
 44 H        2.0260    -2.8540     1.7990 H     1 <1>   0.0800 
 45 H        3.1640    -1.7730     2.5690 H     1 <1>   0.0800 
 46 H        3.5550    -3.4640     2.3810 H     1 <1>   0.0800 
 47 H       -4.7060     2.0370    -0.9450 H     1 <1>   0.3700 
 48 H       -3.0900     1.4600    -0.6590 H     1 <1>   0.3700 
 49 H        5.7590     1.9760     0.2250 H     1 <1>   0.0800 
 50 H        6.0820     1.2880    -1.3720 H     1 <1>   0.0800 
 51 H        7.4990     0.5080     1.2030 H     1 <1>   0.0800 
 52 H        8.1900     1.5010    -0.0580 H     1 <1>   0.0800 
 53 H        7.8200    -0.1750    -0.3840 H     1 <1>   0.0800 
@<TRIPOS>BOND
  1   1   2  2   
  2   1   3  2   
  3   1   4  am  
  4   1   5  1   
  5   4   6  1   
  6   4   7  1   
  7   5   8  ar  
  8   5   9  ar  
  9   6  10  1   
 10   6  26  1   
 11   6  27  1   
 12   7  11  1   
 13   7  28  1   
 14   7  29  1   
 15   8  12  ar  
 16   8  13  1   
 17   9  14  ar  
 18   9  30  1   
 19  10  15  1   
 20  10  31  1   
 21  10  32  1   
 22  11  15  1   
 23  11  33  1   
 24  11  34  1   
 25  12  16  ar  
 26  12  35  1   
 27  13  36  1   
 28  13  37  1   
 29  13  38  1   
 30  14  16  ar  
 31  14  17  1   
 32  15  18  1   
 33  15  39  1   
 34  16  19  1   
 35  17  20  1   
 36  17  21  1   
 37  17  40  1   
 38  18  22  2   
 39  18  23  am  
 40  19  24  1   
 41  20  41  1   
 42  20  42  1   
 43  20  43  1   
 44  21  44  1   
 45  21  45  1   
 46  21  46  1   
 47  23  47  1   
 48  23  48  1   
 49  24  25  1   
 50  24  49  1   
 51  24  50  1   
 52  25  51  1   
 53  25  52  1   
 54  25  53  1   
@<TRIPOS>SUBSTRUCTURE
  1 ****   5 GROUP 4 **** **** 0

# MOE 2024.06 (io_trps.svl 2023.06)
