@<TRIPOS>MOLECULE
8-(2,6-Dimethyl-morpholin-4-ylmethyl)-7-(2-fluoro-benzyl)-3-methyl-3,7-dihydro-p
54 57 1 0 0 
SMALL
USER_CHARGES


@<TRIPOS>ATOM
  1 F        1.1750    -1.9610    -1.5640 F     1 <1>  -0.1900 
  2 C        1.3450    -2.1920    -0.2900 C.ar  1 <1>   0.1900 
  3 C        0.2590    -2.5860     0.4760 C.ar  1 <1>  -0.1440 
  4 C        2.6170    -2.0590     0.2330 C.ar  1 <1>  -0.1500 
  5 C        0.4740    -2.8500     1.8220 C.ar  1 <1>  -0.1500 
  6 C       -1.1240    -2.7260    -0.1350 C.3   1 <1>   0.4980 
  7 C        2.8140    -2.3310     1.5750 C.ar  1 <1>  -0.1500 
  8 C        1.7440    -2.7240     2.3650 C.ar  1 <1>  -0.1500 
  9 N       -1.4860    -4.1630    -0.3440 N.pl3 1 <1>  -0.7640 
 10 C       -2.8180    -4.5950    -0.3590 C.2   1 <1>   0.2770 
 11 C       -0.7320    -5.2380    -0.5890 C.cat 1 <1>   0.6560 
 12 C       -4.0990    -3.9660    -0.1920 C.2   1 <1>   0.7030 
 13 C       -2.7990    -5.9300    -0.6070 C.2   1 <1>   0.4260 
 14 N       -1.5080    -6.3040    -0.7450 N.pl3 1 <1>  -0.7000 
 15 C        0.7970    -5.3830    -0.7280 C.3   1 <1>   0.2540 
 16 O       -4.2360    -2.7800     0.0280 O.2   1 <1>  -0.5700 
 17 N       -5.2080    -4.7560    -0.2900 N.am  1 <1>  -0.4900 
 18 N       -3.9370    -6.7180    -0.7000 N.am  1 <1>  -0.4360 
 19 N        1.1880    -6.8140    -0.8450 N.3   1 <1>  -0.8100 
 20 C       -5.1660    -6.0970    -0.5400 C.2   1 <1>   0.6900 
 21 C       -3.8330    -8.1800    -0.9830 C.3   1 <1>   0.0600 
 22 C        2.3650    -7.0450    -1.7040 C.3   1 <1>   0.1100 
 23 C        1.4020    -7.4690     0.4730 C.3   1 <1>   0.1100 
 24 O       -6.2100    -6.7020    -0.6150 O.2   1 <1>  -0.5700 
 25 C        2.5970    -8.5620    -1.9360 C.3   1 <1>   0.2000 
 26 C        2.1260    -8.8380     0.3730 C.3   1 <1>   0.2000 
 27 O        2.0400    -9.3550    -0.9200 O.3   1 <1>  -0.5600 
 28 C        4.0770    -8.9230    -2.0740 C.3   1 <1>  -0.2400 
 29 C        1.5270    -9.8830     1.3100 C.3   1 <1>  -0.2400 
 30 H        3.4340    -1.7480    -0.3960 H     1 <1>   0.1500 
 31 H       -0.3410    -3.1510     2.4610 H     1 <1>   0.1500 
 32 H       -1.1900    -2.2000    -1.0730 H     1 <1>   0.0800 
 33 H       -1.8310    -2.2700     0.5370 H     1 <1>   0.0800 
 34 H        3.7960    -2.2300     2.0080 H     1 <1>   0.1500 
 35 H        1.9040    -2.9270     3.4110 H     1 <1>   0.1500 
 36 H       -1.0900    -7.2210    -0.9550 H     1 <1>   0.4500 
 37 H        1.2990    -4.9410     0.1120 H     1 <1>   0.0800 
 38 H        1.0940    -4.8540    -1.6170 H     1 <1>   0.0800 
 39 H       -6.1260    -4.3300    -0.1800 H     1 <1>   0.3700 
 40 H       -3.4700    -8.3320    -1.9850 H     1 <1>   0.0800 
 41 H       -4.7940    -8.6570    -0.8910 H     1 <1>   0.0800 
 42 H       -3.1580    -8.6430    -0.2850 H     1 <1>   0.0800 
 43 H        3.2380    -6.6130    -1.2430 H     1 <1>   0.0800 
 44 H        2.2310    -6.5700    -2.6600 H     1 <1>   0.0800 
 45 H        0.4500    -7.6070     0.9550 H     1 <1>   0.0800 
 46 H        1.9930    -6.8350     1.1110 H     1 <1>   0.0800 
 47 H        2.0930    -8.8480    -2.8430 H     1 <1>   0.0800 
 48 H        3.1690    -8.7140     0.6100 H     1 <1>   0.0800 
 49 H        4.6270    -8.6480    -1.1930 H     1 <1>   0.0800 
 50 H        4.5020    -8.4070    -2.9160 H     1 <1>   0.0800 
 51 H        4.1770    -9.9800    -2.2410 H     1 <1>   0.0800 
 52 H        0.4970   -10.0630     1.0620 H     1 <1>   0.0800 
 53 H        1.5880    -9.5490     2.3300 H     1 <1>   0.0800 
 54 H        2.0760   -10.8040     1.2220 H     1 <1>   0.0800 
@<TRIPOS>BOND
  1   1   2  1   
  2   2   3  ar  
  3   2   4  ar  
  4   3   5  ar  
  5   3   6  1   
  6   4   7  ar  
  7   4  30  1   
  8   5   8  ar  
  9   5  31  1   
 10   6   9  1   
 11   6  32  1   
 12   6  33  1   
 13   7   8  ar  
 14   7  34  1   
 15   8  35  1   
 16   9  10  1   
 17   9  11  ar  
 18  10  12  1   
 19  10  13  2   
 20  11  14  ar  
 21  11  15  1   
 22  12  16  2   
 23  12  17  am  
 24  13  14  1   
 25  13  18  1   
 26  14  36  1   
 27  15  19  1   
 28  15  37  1   
 29  15  38  1   
 30  17  20  am  
 31  17  39  1   
 32  18  20  am  
 33  18  21  1   
 34  19  22  1   
 35  19  23  1   
 36  20  24  2   
 37  21  40  1   
 38  21  41  1   
 39  21  42  1   
 40  22  25  1   
 41  22  43  1   
 42  22  44  1   
 43  23  26  1   
 44  23  45  1   
 45  23  46  1   
 46  25  27  1   
 47  25  28  1   
 48  25  47  1   
 49  26  27  1   
 50  26  29  1   
 51  26  48  1   
 52  28  49  1   
 53  28  50  1   
 54  28  51  1   
 55  29  52  1   
 56  29  53  1   
 57  29  54  1   
@<TRIPOS>SUBSTRUCTURE
  1 ****  11 GROUP 4 **** **** 0

# MOE 2024.06 (io_trps.svl 2023.06)
