@<TRIPOS>MOLECULE
8-Oxo-5,6,7,8-tetrahydro-4H-cyclopenta[d][1,2,4]triazolo[1,5-a]pyrimidine-2-carb
23 25 1 0 0 
SMALL
USER_CHARGES


@<TRIPOS>ATOM
  1 O       -0.1110    -0.2910    -0.1440 O.2   1 <1>  -0.5700 
  2 C       -0.1800    -1.5120    -0.0730 C.2   1 <1>   0.5650 
  3 N       -1.4090    -2.2290    -0.0460 N.pl3 1 <1>   0.5610 
  4 C        1.0050    -2.3110    -0.0130 C.2   1 <1>  -0.1240 
  5 N       -2.6930    -1.8310    -0.0840 N.2   1 <1>  -0.7070 
  6 C       -1.4100    -3.5840     0.0290 C.2   1 <1>   0.2700 
  7 C        0.9640    -3.6520     0.0610 C.2   1 <1>  -0.0380 
  8 C        2.4260    -1.8010    -0.0190 C.3   1 <1>  -0.0220 
  9 C       -3.3870    -2.9560    -0.0300 C.2   1 <1>   0.2830 
 10 N       -2.5890    -4.0710     0.0420 N.2   1 <1>  -0.5650 
 11 N       -0.2320    -4.3200     0.0840 N.pl3 1 <1>  -0.5840 
 12 C        2.3240    -4.2910     0.1170 C.3   1 <1>  -0.0220 
 13 C        3.2820    -3.0890    -0.0300 C.3   1 <1>  -0.1600 
 14 C       -4.8730    -3.0610    -0.0390 C.2   1 <1>   1.0330 
 15 O       -5.5820    -2.4500     0.7940 O.co2 1 <1>  -0.9000 
 16 O       -5.4730    -3.7740    -0.8770 O.co2 1 <1>  -0.9000 
 17 H        2.6110    -1.2180     0.8670 H     1 <1>   0.0800 
 18 H        2.6110    -1.1990    -0.8910 H     1 <1>   0.0800 
 19 H       -0.3310    -5.3400     0.1340 H     1 <1>   0.4000 
 20 H        2.4520    -4.9930    -0.6890 H     1 <1>   0.0800 
 21 H        2.4630    -4.7860     1.0620 H     1 <1>   0.0800 
 22 H        4.0000    -3.0740     0.7710 H     1 <1>   0.0800 
 23 H        3.8100    -3.1610    -0.9650 H     1 <1>   0.0800 
@<TRIPOS>BOND
  1   1   2  2   
  2   2   3  1   
  3   2   4  1   
  4   3   5  1   
  5   3   6  1   
  6   4   7  2   
  7   4   8  1   
  8   5   9  2   
  9   6  10  2   
 10   6  11  1   
 11   7  11  1   
 12   7  12  1   
 13   8  13  1   
 14   8  17  1   
 15   8  18  1   
 16   9  10  1   
 17   9  14  1   
 18  11  19  1   
 19  12  13  1   
 20  12  20  1   
 21  12  21  1   
 22  13  22  1   
 23  13  23  1   
 24  14  15  ar  
 25  14  16  ar  
@<TRIPOS>SUBSTRUCTURE
  1 ****   3 GROUP 4 **** **** 0

# MOE 2024.06 (io_trps.svl 2023.06)
