@<TRIPOS>MOLECULE
8-Dimethylamino-7-(2-hydroxy-3-p-tolyloxy-propyl)-1,3-dimethyl-3,7-dihydro-purin
54 56 1 0 0 
SMALL
USER_CHARGES


@<TRIPOS>ATOM
  1 O        5.5090     3.1620     4.0500 O.2   1 <1>  -0.5740 
  2 C        5.6210     3.1200     2.8400 C.2   1 <1>   0.6870 
  3 N        4.8650     3.9690     2.0400 N.am  1 <1>  -0.4250 
  4 N        6.4790     2.1990     2.2570 N.am  1 <1>  -0.4410 
  5 C        4.9060     3.8780     0.6550 C.2   1 <1>   0.7000 
  6 C        4.0230     5.0130     2.7000 C.3   1 <1>   0.0530 
  7 C        6.5080     2.1210     0.8780 C.2   1 <1>   0.4210 
  8 C        7.3750     1.3550     3.1010 C.3   1 <1>   0.0530 
  9 O        4.2220     4.6170    -0.0360 O.2   1 <1>  -0.5740 
 10 C        5.7630     2.8920     0.0610 C.2   1 <1>   0.2710 
 11 N        7.2540     1.2810     0.1170 N.pl3 1 <1>  -0.7030 
 12 N        6.0720     2.4920    -1.2610 N.pl3 1 <1>  -0.7670 
 13 C        6.9840     1.5090    -1.1690 C.cat 1 <1>   1.0690 
 14 C        5.6550     3.2960    -2.4600 C.3   1 <1>   0.3490 
 15 N        7.5660     0.7760    -2.1520 N.pl3 1 <1>  -0.5960 
 16 C        6.6980     4.3450    -2.9220 C.3   1 <1>   0.1940 
 17 C        6.9910     0.5810    -3.5140 C.3   1 <1>   0.0800 
 18 C        8.8680     0.0670    -1.9780 C.3   1 <1>   0.0800 
 19 O        7.8860     3.7140    -3.2770 O.3   1 <1>  -0.6830 
 20 C        7.0080     5.4160    -1.8630 C.3   1 <1>   0.1130 
 21 O        7.9240     4.8910    -0.9130 O.3   1 <1>  -0.3680 
 22 C        7.9260     5.2730     0.3870 C.ar  1 <1>   0.0750 
 23 C        7.1600     6.3180     0.8930 C.ar  1 <1>  -0.1570 
 24 C        8.7190     4.5300     1.2450 C.ar  1 <1>  -0.1570 
 25 C        7.1540     6.5710     2.2540 C.ar  1 <1>  -0.1570 
 26 C        8.7090     4.7860     2.6040 C.ar  1 <1>  -0.1570 
 27 C        7.9160     5.7990     3.1150 C.ar  1 <1>  -0.1500 
 28 C        7.8850     6.0570     4.6110 C.3   1 <1>  -0.1040 
 29 H        3.0990     4.5740     3.0310 H     1 <1>   0.0730 
 30 H        3.8090     5.8230     2.0240 H     1 <1>   0.0730 
 31 H        4.5420     5.4180     3.5520 H     1 <1>   0.0730 
 32 H        6.9350     0.3820     3.2370 H     1 <1>   0.0730 
 33 H        7.5170     1.8060     4.0690 H     1 <1>   0.0730 
 34 H        8.3400     1.2550     2.6380 H     1 <1>   0.0730 
 35 H        7.8840     0.5600     0.4460 H     1 <1>   0.4450 
 36 H        4.7340     3.8060    -2.2440 H     1 <1>   0.0730 
 37 H        5.4370     2.6480    -3.2860 H     1 <1>   0.0730 
 38 H        6.3180     4.8310    -3.8040 H     1 <1>   0.0730 
 39 H        7.3520     1.3440    -4.1820 H     1 <1>   0.0730 
 40 H        5.9160     0.6070    -3.4770 H     1 <1>   0.0730 
 41 H        7.2810    -0.3800    -3.9050 H     1 <1>   0.0730 
 42 H        9.3900     0.4140    -1.1030 H     1 <1>   0.0730 
 43 H        9.4980     0.2540    -2.8320 H     1 <1>   0.0730 
 44 H        8.7020    -0.9940    -1.8970 H     1 <1>   0.0730 
 45 H        8.6010     4.0580    -2.6960 H     1 <1>   0.3950 
 46 H        6.0960     5.7120    -1.3810 H     1 <1>   0.0730 
 47 H        7.4610     6.2810    -2.3150 H     1 <1>   0.0730 
 48 H        6.5650     6.9470     0.2590 H     1 <1>   0.1430 
 49 H        9.3420     3.7500     0.8500 H     1 <1>   0.1430 
 50 H        6.5520     7.3740     2.6420 H     1 <1>   0.1430 
 51 H        9.3210     4.1990     3.2670 H     1 <1>   0.1430 
 52 H        8.8650     5.9250     5.0330 H     1 <1>   0.0730 
 53 H        7.2080     5.3680     5.0830 H     1 <1>   0.0730 
 54 H        7.5600     7.0610     4.8180 H     1 <1>   0.0730 
@<TRIPOS>BOND
  1   1   2  2   
  2   2   3  am  
  3   2   4  am  
  4   3   5  am  
  5   3   6  1   
  6   4   7  1   
  7   4   8  1   
  8   5   9  2   
  9   5  10  1   
 10   6  29  1   
 11   6  30  1   
 12   6  31  1   
 13   7  10  2   
 14   7  11  1   
 15   8  32  1   
 16   8  33  1   
 17   8  34  1   
 18  10  12  1   
 19  11  13  ar  
 20  11  35  1   
 21  12  13  ar  
 22  12  14  1   
 23  13  15  ar  
 24  14  16  1   
 25  14  36  1   
 26  14  37  1   
 27  15  17  1   
 28  15  18  1   
 29  16  19  1   
 30  16  20  1   
 31  16  38  1   
 32  17  39  1   
 33  17  40  1   
 34  17  41  1   
 35  18  42  1   
 36  18  43  1   
 37  18  44  1   
 38  19  45  1   
 39  20  21  1   
 40  20  46  1   
 41  20  47  1   
 42  21  22  1   
 43  22  23  ar  
 44  22  24  ar  
 45  23  25  ar  
 46  23  48  1   
 47  24  26  ar  
 48  24  49  1   
 49  25  27  ar  
 50  25  50  1   
 51  26  27  ar  
 52  26  51  1   
 53  27  28  1   
 54  28  52  1   
 55  28  53  1   
 56  28  54  1   
@<TRIPOS>SUBSTRUCTURE
  1 ****  10 GROUP 4 **** **** 0

# MOE 2024.06 (io_trps.svl 2023.06)
