@<TRIPOS>MOLECULE
2-[(3-Acetyl-phenyl)-methanesulfonyl-amino]-N-(tetrahydro-furan-2-ylmethyl)-acet
46 47 1 0 0 
SMALL
USER_CHARGES


@<TRIPOS>ATOM
  1 S        1.0590     0.5450     1.8620 S.o2  1 <1>   1.3330 
  2 O        2.4270     0.9580     2.0680 O.2   1 <1>  -0.6500 
  3 O        0.7350    -0.3870     0.8130 O.2   1 <1>  -0.6500 
  4 N        0.1340     1.9880     1.6170 N.am  1 <1>  -0.6930 
  5 C        0.3960    -0.0540     3.4000 C.3   1 <1>  -0.1350 
  6 C       -1.0370     1.9820     0.8720 C.ar  1 <1>   0.1990 
  7 C        0.8300     3.3040     1.7930 C.3   1 <1>   0.2570 
  8 C       -1.0130     1.7690    -0.4980 C.ar  1 <1>  -0.1500 
  9 C       -2.2560     2.2080     1.4940 C.ar  1 <1>  -0.1500 
 10 C        1.6220     3.7640     0.5640 C.2   1 <1>   0.5690 
 11 C       -2.1700     1.7690    -1.2770 C.ar  1 <1>   0.0860 
 12 C       -3.4230     2.2150     0.7560 C.ar  1 <1>  -0.1500 
 13 O        1.3780     4.8480     0.0900 O.2   1 <1>  -0.5700 
 14 N        2.5850     2.9550     0.0490 N.am  1 <1>  -0.7300 
 15 C       -2.0870     1.5400    -2.7080 C.2   1 <1>   0.4230 
 16 C       -3.3790     1.9980    -0.6090 C.ar  1 <1>  -0.1500 
 17 C        3.4020     3.2190    -1.1630 C.3   1 <1>   0.1400 
 18 O       -1.0460     1.4320    -3.3010 O.2   1 <1>  -0.5700 
 19 C       -3.3500     1.4220    -3.5400 C.3   1 <1>  -0.1790 
 20 C        4.8750     2.8760    -0.9060 C.3   1 <1>   0.2000 
 21 O        5.6010     3.0100    -2.0830 O.3   1 <1>  -0.5600 
 22 C        5.1230     1.4350    -0.4760 C.3   1 <1>  -0.1600 
 23 C        6.7580     2.2360    -2.0390 C.3   1 <1>   0.1200 
 24 C        6.5400     1.1810    -0.9570 C.3   1 <1>  -0.1600 
 25 H        0.8960    -0.9590     3.6870 H     1 <1>   0.0800 
 26 H       -0.6510    -0.2590     3.2940 H     1 <1>   0.0800 
 27 H        0.5320     0.6750     4.1730 H     1 <1>   0.0800 
 28 H        1.4990     3.2530     2.6320 H     1 <1>   0.0800 
 29 H        0.0940     4.0570     2.0110 H     1 <1>   0.0800 
 30 H       -0.0640     1.5960    -0.9770 H     1 <1>   0.1500 
 31 H       -2.2850     2.3800     2.5550 H     1 <1>   0.1500 
 32 H       -4.3670     2.3900     1.2440 H     1 <1>   0.1500 
 33 H        2.7750     2.0610     0.5230 H     1 <1>   0.3700 
 34 H       -4.3060     2.0120    -1.1540 H     1 <1>   0.1500 
 35 H        3.3190     4.2560    -1.4410 H     1 <1>   0.0800 
 36 H        3.0290     2.6140    -1.9720 H     1 <1>   0.0800 
 37 H       -3.8810     2.3560    -3.5350 H     1 <1>   0.0800 
 38 H       -3.9770     0.6420    -3.1510 H     1 <1>   0.0800 
 39 H       -3.0940     1.1800    -4.5560 H     1 <1>   0.0800 
 40 H        5.2960     3.5630    -0.1910 H     1 <1>   0.0800 
 41 H        4.4360     0.7810    -0.9840 H     1 <1>   0.0800 
 42 H        5.0150     1.3070     0.5870 H     1 <1>   0.0800 
 43 H        7.5870     2.8800    -1.8010 H     1 <1>   0.0800 
 44 H        6.9010     1.7920    -3.0090 H     1 <1>   0.0800 
 45 H        6.6590     0.1850    -1.3460 H     1 <1>   0.0800 
 46 H        7.2470     1.3340    -0.1600 H     1 <1>   0.0800 
@<TRIPOS>BOND
  1   1   2  2   
  2   1   3  2   
  3   1   4  am  
  4   1   5  1   
  5   4   6  1   
  6   4   7  1   
  7   5  25  1   
  8   5  26  1   
  9   5  27  1   
 10   6   8  ar  
 11   6   9  ar  
 12   7  10  1   
 13   7  28  1   
 14   7  29  1   
 15   8  11  ar  
 16   8  30  1   
 17   9  12  ar  
 18   9  31  1   
 19  10  13  2   
 20  10  14  am  
 21  11  15  1   
 22  11  16  ar  
 23  12  16  ar  
 24  12  32  1   
 25  14  17  1   
 26  14  33  1   
 27  15  18  2   
 28  15  19  1   
 29  16  34  1   
 30  17  20  1   
 31  17  35  1   
 32  17  36  1   
 33  19  37  1   
 34  19  38  1   
 35  19  39  1   
 36  20  21  1   
 37  20  22  1   
 38  20  40  1   
 39  21  23  1   
 40  22  24  1   
 41  22  41  1   
 42  22  42  1   
 43  23  24  1   
 44  23  43  1   
 45  23  44  1   
 46  24  45  1   
 47  24  46  1   
@<TRIPOS>SUBSTRUCTURE
  1 ****  14 GROUP 4 **** **** 0

# MOE 2024.06 (io_trps.svl 2023.06)
