@<TRIPOS>MOLECULE
[4-(Azepane-1-sulfonyl)-2-methyl-phenoxy]-acetic acid methyl ester
46 47 1 0 0 
SMALL
USER_CHARGES


@<TRIPOS>ATOM
  1 S       -0.3540     1.3980     0.6640 S.o2  1 <1>   1.4470 
  2 O       -0.7810     2.4800    -0.1960 O.2   1 <1>  -0.6500 
  3 O       -0.6560     1.4600     2.0790 O.2   1 <1>  -0.6500 
  4 N       -1.0650    -0.0310     0.0840 N.am  1 <1>  -0.8490 
  5 C        1.4220     1.1160     0.4160 C.ar  1 <1>  -0.0090 
  6 C       -0.7860    -1.1640     0.9750 C.3   1 <1>   0.1960 
  7 C       -2.4960     0.1690    -0.1650 C.3   1 <1>   0.1960 
  8 C        1.9020     0.6000    -0.7820 C.ar  1 <1>  -0.1500 
  9 C        2.3470     1.4130     1.4090 C.ar  1 <1>  -0.1500 
 10 C       -0.8170    -2.4800     0.1920 C.3   1 <1>  -0.1600 
 11 C       -3.1650    -1.0070    -0.8890 C.3   1 <1>  -0.1600 
 12 C        3.2530     0.3730    -0.9890 C.ar  1 <1>  -0.1430 
 13 C        3.7000     1.1940     1.2220 C.ar  1 <1>  -0.1500 
 14 C       -2.1910    -3.1650     0.1260 C.3   1 <1>  -0.1600 
 15 C       -3.4010    -2.2270     0.0130 C.3   1 <1>  -0.1600 
 16 C        4.1640     0.6690     0.0190 C.ar  1 <1>   0.0830 
 17 C        3.7250    -0.1950    -2.3200 C.3   1 <1>  -0.0970 
 18 O        5.4770     0.4210    -0.2300 O.3   1 <1>  -0.3630 
 19 C        6.5160     0.7700     0.6740 C.3   1 <1>   0.1810 
 20 C        6.7420     2.2740     0.7460 C.2   1 <1>   0.6590 
 21 O        6.5660     2.8870     1.7690 O.2   1 <1>  -0.5700 
 22 O        7.1710     2.8660    -0.3650 O.3   1 <1>  -0.4300 
 23 C        7.4040     4.2580    -0.4230 C.3   1 <1>   0.0400 
 24 H       -1.4690    -1.1810     1.8080 H     1 <1>   0.0800 
 25 H        0.2090    -1.0620     1.3770 H     1 <1>   0.0800 
 26 H       -2.6200     1.0340    -0.7950 H     1 <1>   0.0800 
 27 H       -3.0040     0.3730     0.7640 H     1 <1>   0.0800 
 28 H        1.1940     0.3730    -1.5610 H     1 <1>   0.1500 
 29 H        2.0020     1.8220     2.3440 H     1 <1>   0.1500 
 30 H       -0.1330    -3.1670     0.6560 H     1 <1>   0.0800 
 31 H       -0.4490    -2.3000    -0.8040 H     1 <1>   0.0800 
 32 H       -2.6040    -1.2720    -1.7670 H     1 <1>   0.0800 
 33 H       -4.1280    -0.6610    -1.2220 H     1 <1>   0.0800 
 34 H        4.3660     1.4420     2.0260 H     1 <1>   0.1500 
 35 H       -2.3230    -3.7730     1.0050 H     1 <1>   0.0800 
 36 H       -2.1880    -3.8320    -0.7190 H     1 <1>   0.0800 
 37 H       -4.2260    -2.7960    -0.3800 H     1 <1>   0.0800 
 38 H       -3.6920    -1.8930     0.9950 H     1 <1>   0.0800 
 39 H        2.9010    -0.3600    -2.9900 H     1 <1>   0.0800 
 40 H        4.2290    -1.1320    -2.1590 H     1 <1>   0.0800 
 41 H        4.4120     0.4900    -2.7840 H     1 <1>   0.0800 
 42 H        7.4150     0.3020     0.3200 H     1 <1>   0.0800 
 43 H        6.2810     0.3730     1.6430 H     1 <1>   0.0800 
 44 H        7.7410     4.5060    -1.4140 H     1 <1>   0.0800 
 45 H        8.1570     4.5160     0.3010 H     1 <1>   0.0800 
 46 H        6.4850     4.7720    -0.2040 H     1 <1>   0.0800 
@<TRIPOS>BOND
  1   1   2  2   
  2   1   3  2   
  3   1   4  am  
  4   1   5  1   
  5   4   6  1   
  6   4   7  1   
  7   5   8  ar  
  8   5   9  ar  
  9   6  10  1   
 10   6  24  1   
 11   6  25  1   
 12   7  11  1   
 13   7  26  1   
 14   7  27  1   
 15   8  12  ar  
 16   8  28  1   
 17   9  13  ar  
 18   9  29  1   
 19  10  14  1   
 20  10  30  1   
 21  10  31  1   
 22  11  15  1   
 23  11  32  1   
 24  11  33  1   
 25  12  16  ar  
 26  12  17  1   
 27  13  16  ar  
 28  13  34  1   
 29  14  15  1   
 30  14  35  1   
 31  14  36  1   
 32  15  37  1   
 33  15  38  1   
 34  16  18  1   
 35  17  39  1   
 36  17  40  1   
 37  17  41  1   
 38  18  19  1   
 39  19  20  1   
 40  19  42  1   
 41  19  43  1   
 42  20  21  2   
 43  20  22  1   
 44  22  23  1   
 45  23  44  1   
 46  23  45  1   
 47  23  46  1   
@<TRIPOS>SUBSTRUCTURE
  1 ****   5 GROUP 4 **** **** 0

# MOE 2024.06 (io_trps.svl 2023.06)
