@<TRIPOS>MOLECULE
3-Isopropyl-6-(3-methoxy-phenyl)-[1,2,4]triazolo[3,4-b][1,3,4]thiadiazole
33 35 1 0 0 
SMALL
USER_CHARGES


@<TRIPOS>ATOM
  1 S       -0.0960    -0.0610     0.8150 S.3   1 <1>  -0.1970 
  2 C        0.6880     1.4890     0.6470 C.2   1 <1>   0.2420 
  3 C       -1.6300     0.6780     0.2630 C.2   1 <1>   0.5050 
  4 N        1.8690     1.9580     0.8290 N.2   1 <1>  -0.3380 
  5 N       -0.2040     2.3630     0.2210 N.pl3 1 <1>   0.5050 
  6 N       -1.5120     1.9320    -0.0020 N.2   1 <1>  -0.6520 
  7 C       -2.8140    -0.1570     0.1650 C.ar  1 <1>   0.0860 
  8 N        1.7650     3.2600     0.4990 N.2   1 <1>  -0.3380 
  9 C        0.5340     3.4830     0.1410 C.2   1 <1>   0.0060 
 10 C       -4.0260     0.4060    -0.2420 C.ar  1 <1>  -0.1500 
 11 C       -2.8150    -1.5250     0.4620 C.ar  1 <1>  -0.1500 
 12 C       -0.0600     4.8130    -0.3110 C.3   1 <1>   0.1000 
 13 C       -5.1850    -0.3520    -0.3500 C.ar  1 <1>   0.0830 
 14 C       -3.9630    -2.2870     0.3570 C.ar  1 <1>  -0.1500 
 15 C        0.9960     5.7150    -0.9620 C.3   1 <1>  -0.2400 
 16 C       -0.7050     5.5300     0.8800 C.3   1 <1>  -0.2400 
 17 O       -6.3830     0.1490    -0.7400 O.3   1 <1>  -0.3630 
 18 C       -5.1470    -1.7020    -0.0480 C.ar  1 <1>  -0.1500 
 19 C       -6.5430     1.5100    -1.0740 C.3   1 <1>   0.0400 
 20 H       -4.0440     1.4540    -0.4730 H     1 <1>   0.1500 
 21 H       -1.9140    -2.0180     0.7800 H     1 <1>   0.1500 
 22 H       -0.8230     4.6120    -1.0440 H     1 <1>   0.0800 
 23 H       -3.9400    -3.3380     0.5900 H     1 <1>   0.1500 
 24 H        1.7660     5.9640    -0.2530 H     1 <1>   0.0800 
 25 H        0.5470     6.6240    -1.3190 H     1 <1>   0.0800 
 26 H        1.4520     5.2060    -1.7930 H     1 <1>   0.0800 
 27 H        0.0340     5.7310     1.6360 H     1 <1>   0.0800 
 28 H       -1.4780     4.9180     1.3090 H     1 <1>   0.0800 
 29 H       -1.1410     6.4620     0.5660 H     1 <1>   0.0800 
 30 H       -6.0470    -2.2850    -0.1330 H     1 <1>   0.1500 
 31 H       -7.5700     1.6670    -1.3490 H     1 <1>   0.0800 
 32 H       -5.9020     1.7440    -1.9050 H     1 <1>   0.0800 
 33 H       -6.2990     2.1120    -0.2160 H     1 <1>   0.0800 
@<TRIPOS>BOND
  1   1   2  1   
  2   1   3  1   
  3   2   4  2   
  4   2   5  1   
  5   3   6  2   
  6   3   7  1   
  7   4   8  1   
  8   5   6  1   
  9   5   9  1   
 10   7  10  ar  
 11   7  11  ar  
 12   8   9  2   
 13   9  12  1   
 14  10  13  ar  
 15  10  20  1   
 16  11  14  ar  
 17  11  21  1   
 18  12  15  1   
 19  12  16  1   
 20  12  22  1   
 21  13  17  1   
 22  13  18  ar  
 23  14  18  ar  
 24  14  23  1   
 25  15  24  1   
 26  15  25  1   
 27  15  26  1   
 28  16  27  1   
 29  16  28  1   
 30  16  29  1   
 31  17  19  1   
 32  18  30  1   
 33  19  31  1   
 34  19  32  1   
 35  19  33  1   
@<TRIPOS>SUBSTRUCTURE
  1 ****   6 GROUP 4 **** **** 0

# MOE 2024.06 (io_trps.svl 2023.06)
