@<TRIPOS>MOLECULE
8-Allylamino-7-(2-hydroxy-3-p-tolyloxy-propyl)-3-methyl-3,7-dihydro-purine-2,6-d
52 54 1 0 0 
SMALL
USER_CHARGES


@<TRIPOS>ATOM
  1 O        1.4940     2.1490    -1.8490 O.2   1 <1>  -0.5750 
  2 C        2.6760     2.0680    -1.6110 C.2   1 <1>   0.6860 
  3 N        3.2590     0.8970    -1.1470 N.am  1 <1>  -0.4420 
  4 N        3.4570     3.1690    -1.8100 N.am  1 <1>  -0.4950 
  5 C        4.6210     0.9190    -0.8830 C.2   1 <1>   0.4210 
  6 C        2.4400    -0.3270    -0.9100 C.3   1 <1>   0.0520 
  7 C        4.8010     3.2030    -1.5720 C.2   1 <1>   0.6990 
  8 N        5.3880    -0.0910    -0.3890 N.pl3 1 <1>  -0.7040 
  9 C        5.4100     2.0010    -1.0760 C.2   1 <1>   0.2710 
 10 O        5.4060     4.2320    -1.8000 O.2   1 <1>  -0.5750 
 11 C        6.6320     0.3630    -0.2600 C.cat 1 <1>   1.0690 
 12 N        6.7090     1.6220    -0.6800 N.pl3 1 <1>  -0.7670 
 13 N        7.6490    -0.3350     0.2290 N.pl3 1 <1>  -0.7180 
 14 C        7.8220     2.6140    -0.5450 C.3   1 <1>   0.3480 
 15 C        7.6780    -1.7290     0.6830 C.3   1 <1>   0.3000 
 16 C        7.7850     3.3420     0.8220 C.3   1 <1>   0.1930 
 17 C        8.9980    -2.2870     0.2150 C.2   1 <1>  -0.2950 
 18 O        6.4930     3.7790     1.1040 O.3   1 <1>  -0.6840 
 19 C        8.7200     4.5550     0.8430 C.3   1 <1>   0.1130 
 20 C       10.0240    -2.6030     1.0120 C.2   1 <1>  -0.3060 
 21 O        8.2910     5.4620    -0.1480 O.3   1 <1>  -0.3680 
 22 C        9.0240     6.5550    -0.4660 C.ar  1 <1>   0.0750 
 23 C       10.1410     6.9740     0.2510 C.ar  1 <1>  -0.1570 
 24 C        8.6170     7.2750    -1.5770 C.ar  1 <1>  -0.1570 
 25 C       10.8400     8.0980    -0.1550 C.ar  1 <1>  -0.1570 
 26 C        9.3190     8.3980    -1.9780 C.ar  1 <1>  -0.1570 
 27 C       10.4340     8.8150    -1.2690 C.ar  1 <1>  -0.1510 
 28 C       11.2030    10.0450    -1.7120 C.3   1 <1>  -0.1040 
 29 H        3.0010     4.0130    -2.1500 H     1 <1>   0.3640 
 30 H        1.4610    -0.2220    -1.3470 H     1 <1>   0.0720 
 31 H        2.3240    -0.4890     0.1470 H     1 <1>   0.0720 
 32 H        2.9150    -1.1820    -1.3570 H     1 <1>   0.0720 
 33 H        5.0630    -1.0150    -0.1230 H     1 <1>   0.4450 
 34 H        8.5740     0.0860     0.2470 H     1 <1>   0.4450 
 35 H        7.7510     3.3350    -1.3430 H     1 <1>   0.0720 
 36 H        8.7710     2.1200    -0.6570 H     1 <1>   0.0720 
 37 H        6.8640    -2.3010     0.2690 H     1 <1>   0.0720 
 38 H        7.6220    -1.7600     1.7590 H     1 <1>   0.0720 
 39 H        8.0680     2.6590     1.6020 H     1 <1>   0.0720 
 40 H        9.0450    -2.4170    -0.8540 H     1 <1>   0.1430 
 41 H        6.3590     4.6520     0.6630 H     1 <1>   0.3940 
 42 H        9.7310     4.2610     0.6220 H     1 <1>   0.0720 
 43 H        8.6860     5.0480     1.8000 H     1 <1>   0.0720 
 44 H       10.9580    -3.0060     0.6540 H     1 <1>   0.1430 
 45 H       10.0280    -2.4990     2.0850 H     1 <1>   0.1430 
 46 H       10.4800     6.4490     1.1230 H     1 <1>   0.1430 
 47 H        7.7510     6.9540    -2.1260 H     1 <1>   0.1430 
 48 H       11.7030     8.4160     0.4020 H     1 <1>   0.1430 
 49 H        8.9930     8.9450    -2.8450 H     1 <1>   0.1430 
 50 H       11.6810    10.5150    -0.8710 H     1 <1>   0.0720 
 51 H       10.5390    10.7590    -2.1660 H     1 <1>   0.0720 
 52 H       11.9550     9.7650    -2.4280 H     1 <1>   0.0720 
@<TRIPOS>BOND
  1   1   2  2   
  2   2   3  am  
  3   2   4  am  
  4   3   5  1   
  5   3   6  1   
  6   4   7  am  
  7   4  29  1   
  8   5   8  1   
  9   5   9  2   
 10   6  30  1   
 11   6  31  1   
 12   6  32  1   
 13   7   9  1   
 14   7  10  2   
 15   8  11  ar  
 16   8  33  1   
 17   9  12  1   
 18  11  12  ar  
 19  11  13  ar  
 20  12  14  1   
 21  13  15  1   
 22  13  34  1   
 23  14  16  1   
 24  14  35  1   
 25  14  36  1   
 26  15  17  1   
 27  15  37  1   
 28  15  38  1   
 29  16  18  1   
 30  16  19  1   
 31  16  39  1   
 32  17  20  2   
 33  17  40  1   
 34  18  41  1   
 35  19  21  1   
 36  19  42  1   
 37  19  43  1   
 38  20  44  1   
 39  20  45  1   
 40  21  22  1   
 41  22  23  ar  
 42  22  24  ar  
 43  23  25  ar  
 44  23  46  1   
 45  24  26  ar  
 46  24  47  1   
 47  25  27  ar  
 48  25  48  1   
 49  26  27  ar  
 50  26  49  1   
 51  27  28  1   
 52  28  50  1   
 53  28  51  1   
 54  28  52  1   
@<TRIPOS>SUBSTRUCTURE
  1 ****  14 GROUP 4 **** **** 0

# MOE 2024.06 (io_trps.svl 2023.06)
