@<TRIPOS>MOLECULE
4-(2-Methyl-4-oxo-2,3,4,5-tetrahydro-benzo[b][1,4]diazepin-1-yl)-4-oxo-butyric a
35 36 1 0 0 
SMALL
USER_CHARGES


@<TRIPOS>ATOM
  1 O       -1.2720    -0.3420     2.2900 O.2   1 <1>  -0.5700 
  2 C       -1.2840    -1.2770     1.5310 C.2   1 <1>   0.5690 
  3 N       -2.4310    -2.0090     1.4460 N.am  1 <1>  -0.5470 
  4 C       -0.0210    -1.5150     0.7220 C.3   1 <1>  -0.0990 
  5 C       -2.8540    -3.1350     0.7060 C.ar  1 <1>   0.1170 
  6 C       -0.1670    -2.5290    -0.4090 C.3   1 <1>   0.2200 
  7 C       -1.9790    -4.0320     0.0700 C.ar  1 <1>   0.1170 
  8 C       -4.2220    -3.3610     0.6230 C.ar  1 <1>  -0.1500 
  9 N       -0.5860    -3.8420     0.1400 N.am  1 <1>  -0.4770 
 10 C        1.0850    -2.6400    -1.2870 C.3   1 <1>  -0.2400 
 11 C       -2.5050    -5.1040    -0.6410 C.ar  1 <1>  -0.1500 
 12 C       -4.7310    -4.4410    -0.0750 C.ar  1 <1>  -0.1500 
 13 C        0.2680    -4.6530     0.8740 C.2   1 <1>   0.5690 
 14 C       -3.8690    -5.3160    -0.7080 C.ar  1 <1>  -0.1500 
 15 O        1.3730    -4.2930     1.2130 O.2   1 <1>  -0.5700 
 16 C       -0.1560    -6.0510     1.3030 C.3   1 <1>  -0.0990 
 17 C        0.2480    -7.1190     0.2670 C.3   1 <1>  -0.2660 
 18 C       -0.6770    -8.3070     0.3070 C.2   1 <1>   0.9060 
 19 O       -0.4930    -9.1720     1.1660 O.co2 1 <1>  -0.9000 
 20 O       -1.5960    -8.3540    -0.5150 O.co2 1 <1>  -0.9000 
 21 H       -3.1340    -1.6330     2.0800 H     1 <1>   0.3700 
 22 H        0.7610    -1.8170     1.3920 H     1 <1>   0.0800 
 23 H        0.2720    -0.5730     0.2990 H     1 <1>   0.0800 
 24 H       -0.9540    -2.1780    -1.0570 H     1 <1>   0.0800 
 25 H       -4.9050    -2.6870     1.1080 H     1 <1>   0.1500 
 26 H        1.9630    -2.8400    -0.7010 H     1 <1>   0.0800 
 27 H        1.2430    -1.7150    -1.8120 H     1 <1>   0.0800 
 28 H        0.9570    -3.4240    -2.0120 H     1 <1>   0.0800 
 29 H       -1.8520    -5.7980    -1.1390 H     1 <1>   0.1500 
 30 H       -5.7930    -4.6080    -0.1250 H     1 <1>   0.1500 
 31 H       -4.2420    -6.1720    -1.2450 H     1 <1>   0.1500 
 32 H       -1.2160    -6.0860     1.4720 H     1 <1>   0.0800 
 33 H        0.3090    -6.2900     2.2420 H     1 <1>   0.0800 
 34 H        1.2490    -7.4560     0.4550 H     1 <1>   0.0800 
 35 H        0.2130    -6.7160    -0.7260 H     1 <1>   0.0800 
@<TRIPOS>BOND
  1   1   2  2   
  2   2   3  am  
  3   2   4  1   
  4   3   5  1   
  5   3  21  1   
  6   4   6  1   
  7   4  22  1   
  8   4  23  1   
  9   5   7  ar  
 10   5   8  ar  
 11   6   9  1   
 12   6  10  1   
 13   6  24  1   
 14   7   9  1   
 15   7  11  ar  
 16   8  12  ar  
 17   8  25  1   
 18   9  13  am  
 19  10  26  1   
 20  10  27  1   
 21  10  28  1   
 22  11  14  ar  
 23  11  29  1   
 24  12  14  ar  
 25  12  30  1   
 26  13  15  2   
 27  13  16  1   
 28  14  31  1   
 29  16  17  1   
 30  16  32  1   
 31  16  33  1   
 32  17  18  1   
 33  17  34  1   
 34  17  35  1   
 35  18  19  ar  
 36  18  20  ar  
@<TRIPOS>SUBSTRUCTURE
  1 ****   7 GROUP 4 **** **** 0

# MOE 2024.06 (io_trps.svl 2023.06)
