@<TRIPOS>MOLECULE
8-Furan-2-ylmethyl-1,6,7-trimethyl-3-(2-oxo-propyl)-1H,8H-imidazo[2,1-f]purine-2
47 50 1 0 0 
SMALL
USER_CHARGES


@<TRIPOS>ATOM
  1 O        0.9570    -0.2610     0.1670 O.2   1 <1>  -0.5750 
  2 C        1.8720     0.5230     0.3170 C.2   1 <1>   0.6860 
  3 N        1.6010     1.8630     0.5550 N.am  1 <1>  -0.4260 
  4 N        3.1870     0.0800     0.2450 N.am  1 <1>  -0.4420 
  5 C        2.6190     2.7810     0.7590 C.2   1 <1>   0.6990 
  6 C        0.2730     2.3970     0.1170 C.3   1 <1>   0.1940 
  7 C        4.1930     1.0190     0.3520 C.2   1 <1>   0.4200 
  8 C        3.4960    -1.3530    -0.0290 C.3   1 <1>   0.0520 
  9 O        2.3530     3.9300     1.0730 O.2   1 <1>  -0.5750 
 10 C        3.9630     2.3310     0.6010 C.2   1 <1>   0.2700 
 11 C        0.3150     2.7910    -1.3590 C.2   1 <1>   0.4420 
 12 N        5.5340     0.8160     0.2280 N.pl3 1 <1>  -0.7040 
 13 N        5.2260     2.9520     0.6270 N.pl3 1 <1>  -0.6330 
 14 O        1.3340     2.7840    -1.9880 O.2   1 <1>  -0.5750 
 15 C       -0.9950     3.1960    -1.9970 C.3   1 <1>  -0.1870 
 16 C        6.1220     2.0030     0.3880 C.cat 1 <1>   1.0690 
 17 C        5.9170     4.1370     0.7490 C.2   1 <1>   0.2340 
 18 N        7.3680     2.4940     0.3650 N.pl3 1 <1>  -0.5720 
 19 C        7.2330     3.8560     0.5890 C.2   1 <1>   0.1570 
 20 C        5.1800     5.4360     1.0100 C.3   1 <1>  -0.1100 
 21 C        8.6430     1.7580     0.1400 C.3   1 <1>   0.3410 
 22 C        8.4390     4.7800     0.6230 C.3   1 <1>  -0.1100 
 23 C        8.4440     0.2500     0.1390 C.2   1 <1>  -0.0490 
 24 O        7.8540    -0.3220    -0.8950 O.3   1 <1>  -0.2870 
 25 C        8.7830    -0.6790     1.0590 C.2   1 <1>  -0.1580 
 26 C        7.8180    -1.6210    -0.6690 C.2   1 <1>  -0.0190 
 27 C        8.3700    -1.9080     0.5280 C.2   1 <1>  -0.1580 
 28 H        0.0120     3.2580     0.7060 H     1 <1>   0.0720 
 29 H       -0.4930     1.6570     0.2670 H     1 <1>   0.0720 
 30 H        2.6990    -1.9840     0.3280 H     1 <1>   0.0720 
 31 H        4.4030    -1.6450     0.4700 H     1 <1>   0.0720 
 32 H        3.6050    -1.5030    -1.0890 H     1 <1>   0.0720 
 33 H        6.0670    -0.0170    -0.0420 H     1 <1>   0.4440 
 34 H       -1.6940     2.3810    -1.9530 H     1 <1>   0.0720 
 35 H       -0.8330     3.4560    -3.0280 H     1 <1>   0.0720 
 36 H       -1.4060     4.0480    -1.4870 H     1 <1>   0.0720 
 37 H        4.6360     5.3700     1.9350 H     1 <1>   0.0720 
 38 H        4.4820     5.6280     0.2150 H     1 <1>   0.0720 
 39 H        5.8630     6.2630     1.0730 H     1 <1>   0.0720 
 40 H        9.3350     2.0150     0.9230 H     1 <1>   0.0720 
 41 H        9.0700     2.0600    -0.8000 H     1 <1>   0.0720 
 42 H        9.1080     4.4910     1.4140 H     1 <1>   0.0720 
 43 H        8.1370     5.7980     0.7930 H     1 <1>   0.0720 
 44 H        8.9660     4.7380    -0.3140 H     1 <1>   0.0720 
 45 H        9.2760    -0.5540     2.0090 H     1 <1>   0.1420 
 46 H        7.3920    -2.2740    -1.4130 H     1 <1>   0.1420 
 47 H        8.4970    -2.8670     1.0010 H     1 <1>   0.1420 
@<TRIPOS>BOND
  1   1   2  2   
  2   2   3  am  
  3   2   4  am  
  4   3   5  am  
  5   3   6  1   
  6   4   7  1   
  7   4   8  1   
  8   5   9  2   
  9   5  10  1   
 10   6  11  1   
 11   6  28  1   
 12   6  29  1   
 13   7  10  2   
 14   7  12  1   
 15   8  30  1   
 16   8  31  1   
 17   8  32  1   
 18  10  13  1   
 19  11  14  2   
 20  11  15  1   
 21  12  16  ar  
 22  12  33  1   
 23  13  16  ar  
 24  13  17  1   
 25  15  34  1   
 26  15  35  1   
 27  15  36  1   
 28  16  18  ar  
 29  17  19  2   
 30  17  20  1   
 31  18  19  1   
 32  18  21  1   
 33  19  22  1   
 34  20  37  1   
 35  20  38  1   
 36  20  39  1   
 37  21  23  1   
 38  21  40  1   
 39  21  41  1   
 40  22  42  1   
 41  22  43  1   
 42  22  44  1   
 43  23  24  1   
 44  23  25  2   
 45  24  26  1   
 46  25  27  1   
 47  25  45  1   
 48  26  27  2   
 49  26  46  1   
 50  27  47  1   
@<TRIPOS>SUBSTRUCTURE
  1 ****   7 GROUP 4 **** **** 0

# MOE 2024.06 (io_trps.svl 2023.06)
