@<TRIPOS>MOLECULE
NONAME
49 50 1 0 0 
SMALL
USER_CHARGES


@<TRIPOS>ATOM
  1 O        0.1140    -0.8640     0.6340 O.2   1 <1>  -0.5700 
  2 C       -0.2970    -1.7250    -0.1180 C.2   1 <1>   0.5440 
  3 N        0.2320    -1.8110    -1.3770 N.am  1 <1>  -0.7300 
  4 C       -1.3300    -2.6420     0.3140 C.ar  1 <1>   0.0860 
  5 C        1.3330    -0.9680    -1.8990 C.3   1 <1>   0.1400 
  6 C       -1.3580    -3.9630    -0.1280 C.ar  1 <1>   0.1600 
  7 C       -2.3350    -2.2560     1.1900 C.ar  1 <1>  -0.1500 
  8 C        2.6030    -1.8050    -2.0860 C.3   1 <1>  -0.1600 
  9 N       -2.2650    -4.8720     0.1900 N.ar  1 <1>  -0.6200 
 10 C       -3.2870    -3.1880     1.5410 C.ar  1 <1>  -0.1500 
 11 C        3.1200    -2.3980    -0.7610 C.3   1 <1>  -0.1600 
 12 C       -3.2140    -4.4700     1.0190 C.ar  1 <1>   0.1670 
 13 C        4.4280    -3.1900    -0.9200 C.3   1 <1>  -0.1600 
 14 C       -4.2520    -5.5070     1.3900 C.3   1 <1>  -0.0970 
 15 C        5.6210    -2.2990    -1.2710 C.3   1 <1>   0.1400 
 16 N        6.8480    -3.1210    -1.2760 N.am  1 <1>  -0.7300 
 17 C        7.9710    -2.9520    -0.5260 C.2   1 <1>   0.5440 
 18 O        8.6710    -3.9300    -0.3840 O.2   1 <1>  -0.5700 
 19 C        8.3260    -1.6940     0.0960 C.ar  1 <1>   0.0860 
 20 C        8.7900    -1.6700     1.4090 C.ar  1 <1>   0.1600 
 21 C        8.2350    -0.4740    -0.5610 C.ar  1 <1>  -0.1500 
 22 N        9.1270    -0.5870     2.0930 N.ar  1 <1>  -0.6200 
 23 C        8.5860     0.6640     0.1320 C.ar  1 <1>  -0.1500 
 24 C        9.0190     0.5590     1.4440 C.ar  1 <1>   0.1670 
 25 C        9.4080     1.7980     2.2230 C.3   1 <1>  -0.0970 
 26 H       -0.1800    -2.4550    -2.0530 H     1 <1>   0.3700 
 27 H        1.5320    -0.1560    -1.2180 H     1 <1>   0.0800 
 28 H        1.0310    -0.5420    -2.8410 H     1 <1>   0.0800 
 29 H       -0.5740    -4.2910    -0.7870 H     1 <1>   0.1500 
 30 H       -2.3600    -1.2520     1.5790 H     1 <1>   0.1500 
 31 H        3.3520    -1.1620    -2.5100 H     1 <1>   0.0800 
 32 H        2.4110    -2.5930    -2.7930 H     1 <1>   0.0800 
 33 H       -4.0790    -2.9190     2.2160 H     1 <1>   0.1500 
 34 H        2.3760    -3.0630    -0.3580 H     1 <1>   0.0800 
 35 H        3.2600    -1.6080    -0.0410 H     1 <1>   0.0800 
 36 H        4.3010    -3.9440    -1.6770 H     1 <1>   0.0800 
 37 H        4.6340    -3.6830     0.0150 H     1 <1>   0.0800 
 38 H       -4.7480    -5.8520     0.5010 H     1 <1>   0.0800 
 39 H       -4.9840    -5.1020     2.0630 H     1 <1>   0.0800 
 40 H       -3.7690    -6.3440     1.8620 H     1 <1>   0.0800 
 41 H        5.7050    -1.5090    -0.5420 H     1 <1>   0.0800 
 42 H        5.4900    -1.8590    -2.2440 H     1 <1>   0.0800 
 43 H        6.7520    -4.0550    -1.6810 H     1 <1>   0.3700 
 44 H        8.8830    -2.6140     1.9190 H     1 <1>   0.1500 
 45 H        7.9030    -0.4260    -1.5830 H     1 <1>   0.1500 
 46 H        8.5250     1.6250    -0.3450 H     1 <1>   0.1500 
 47 H        8.7880     1.8800     3.0980 H     1 <1>   0.0800 
 48 H        9.2930     2.6850     1.6290 H     1 <1>   0.0800 
 49 H       10.4330     1.7170     2.5350 H     1 <1>   0.0800 
@<TRIPOS>BOND
  1   1   2  2   
  2   2   3  am  
  3   2   4  1   
  4   3   5  1   
  5   3  26  1   
  6   4   6  ar  
  7   4   7  ar  
  8   5   8  1   
  9   5  27  1   
 10   5  28  1   
 11   6   9  ar  
 12   6  29  1   
 13   7  10  ar  
 14   7  30  1   
 15   8  11  1   
 16   8  31  1   
 17   8  32  1   
 18   9  12  ar  
 19  10  12  ar  
 20  10  33  1   
 21  11  13  1   
 22  11  34  1   
 23  11  35  1   
 24  12  14  1   
 25  13  15  1   
 26  13  36  1   
 27  13  37  1   
 28  14  38  1   
 29  14  39  1   
 30  14  40  1   
 31  15  16  1   
 32  15  41  1   
 33  15  42  1   
 34  16  17  am  
 35  16  43  1   
 36  17  18  2   
 37  17  19  1   
 38  19  20  ar  
 39  19  21  ar  
 40  20  22  ar  
 41  20  44  1   
 42  21  23  ar  
 43  21  45  1   
 44  22  24  ar  
 45  23  24  ar  
 46  23  46  1   
 47  24  25  1   
 48  25  47  1   
 49  25  48  1   
 50  25  49  1   
@<TRIPOS>SUBSTRUCTURE
  1 ****  11 GROUP 4 **** **** 0

# MOE 2024.06 (io_trps.svl 2023.06)
