@<TRIPOS>MOLECULE
5-Phenyl-4-(tetrahydro-furan-2-ylmethyl)-4H-[1,2,4]triazole-3-thiol
33 35 1 0 0 
SMALL
USER_CHARGES


@<TRIPOS>ATOM
  1 S       -0.5190     0.1920     2.5400 S.3   1 <1>  -0.9360 
  2 C       -1.8300     0.5380     1.6510 C.cat 1 <1>   0.7360 
  3 N       -2.2210     1.7430     1.3080 N.pl3 1 <1>  -0.3930 
  4 N       -2.6830    -0.3320     1.1640 N.pl3 1 <1>  -0.7640 
  5 N       -3.3690     1.6850     0.5760 N.2   1 <1>  -0.2600 
  6 C       -3.6310     0.4150     0.4970 C.2   1 <1>   0.6120 
  7 C       -2.5550    -1.7990     1.3150 C.3   1 <1>   0.3540 
  8 C       -4.7830    -0.1640    -0.1540 C.ar  1 <1>   0.0410 
  9 C       -1.4480    -2.3800     0.4120 C.3   1 <1>   0.2000 
 10 C       -4.6680    -0.8630    -1.3550 C.ar  1 <1>  -0.1500 
 11 C       -6.0540    -0.0430     0.4070 C.ar  1 <1>  -0.1500 
 12 O       -1.7780    -2.2640    -0.9380 O.3   1 <1>  -0.5600 
 13 C       -1.2080    -3.8740     0.6000 C.3   1 <1>  -0.1600 
 14 C       -5.7730    -1.4250    -1.9660 C.ar  1 <1>  -0.1500 
 15 C       -7.1630    -0.6020    -0.2010 C.ar  1 <1>  -0.1500 
 16 C       -0.9870    -3.1320    -1.6800 C.3   1 <1>   0.1200 
 17 C       -0.6990    -4.3200    -0.7640 C.3   1 <1>  -0.1600 
 18 C       -7.0240    -1.2970    -1.3890 C.ar  1 <1>  -0.1500 
 19 H       -1.6890     2.5670     1.5850 H     1 <1>   0.4500 
 20 H       -3.4910    -2.2790     1.0900 H     1 <1>   0.0800 
 21 H       -2.3080    -2.0150     2.3400 H     1 <1>   0.0800 
 22 H       -0.5260    -1.8450     0.5720 H     1 <1>   0.0800 
 23 H       -3.7010    -0.9630    -1.8160 H     1 <1>   0.1500 
 24 H       -6.1730     0.4970     1.3310 H     1 <1>   0.1500 
 25 H       -2.1320    -4.3730     0.8300 H     1 <1>   0.0800 
 26 H       -0.4960    -4.0590     1.3850 H     1 <1>   0.0800 
 27 H       -5.6610    -1.9630    -2.8930 H     1 <1>   0.1500 
 28 H       -8.1370    -0.4980     0.2480 H     1 <1>   0.1500 
 29 H       -0.0800    -2.6140    -1.9430 H     1 <1>   0.0800 
 30 H       -1.5230    -3.4180    -2.5690 H     1 <1>   0.0800 
 31 H       -1.2150    -5.2000    -1.1050 H     1 <1>   0.0800 
 32 H        0.3580    -4.5180    -0.7450 H     1 <1>   0.0800 
 33 H       -7.8860    -1.7340    -1.8640 H     1 <1>   0.1500 
@<TRIPOS>BOND
  1   1   2  1   
  2   2   3  ar  
  3   2   4  ar  
  4   3   5  1   
  5   3  19  1   
  6   4   6  1   
  7   4   7  1   
  8   5   6  2   
  9   6   8  1   
 10   7   9  1   
 11   7  20  1   
 12   7  21  1   
 13   8  10  ar  
 14   8  11  ar  
 15   9  12  1   
 16   9  13  1   
 17   9  22  1   
 18  10  14  ar  
 19  10  23  1   
 20  11  15  ar  
 21  11  24  1   
 22  12  16  1   
 23  13  17  1   
 24  13  25  1   
 25  13  26  1   
 26  14  18  ar  
 27  14  27  1   
 28  15  18  ar  
 29  15  28  1   
 30  16  17  1   
 31  16  29  1   
 32  16  30  1   
 33  17  31  1   
 34  17  32  1   
 35  18  33  1   
@<TRIPOS>SUBSTRUCTURE
  1 ****   4 GROUP 4 **** **** 0

# MOE 2024.06 (io_trps.svl 2023.06)
