@<TRIPOS>MOLECULE
6-(3,4,5-Triethoxy-phenyl)-[1,2,4]triazolo[3,4-b][1,3,4]thiadiazole
41 43 1 0 0 
SMALL
USER_CHARGES


@<TRIPOS>ATOM
  1 S       -0.4710    -0.4380     0.6690 S.3   1 <1>  -0.1970 
  2 C        0.5550     0.9660     0.8210 C.2   1 <1>   0.2420 
  3 C       -1.8980     0.6390     0.5770 C.2   1 <1>   0.5050 
  4 N        1.8140     1.1920     0.9480 N.2   1 <1>  -0.3380 
  5 N       -0.2080     2.0410     0.7920 N.pl3 1 <1>   0.5050 
  6 N       -1.5860     1.8850     0.6560 N.2   1 <1>  -0.6520 
  7 C       -3.2140     0.0460     0.4310 C.ar  1 <1>   0.0860 
  8 N        1.9100     2.5350     1.0100 N.2   1 <1>  -0.3380 
  9 C        0.7060     3.0130     0.9160 C.2   1 <1>   0.0360 
 10 C       -3.4290    -1.3280     0.2980 C.ar  1 <1>  -0.1500 
 11 C       -4.3460     0.8620     0.4140 C.ar  1 <1>  -0.1500 
 12 C       -4.6940    -1.8710     0.1630 C.ar  1 <1>   0.0830 
 13 C       -5.6200     0.3450     0.2790 C.ar  1 <1>   0.0830 
 14 O       -4.7340    -3.2270     0.0380 O.3   1 <1>  -0.3630 
 15 C       -5.8160    -1.0340     0.1780 C.ar  1 <1>   0.0830 
 16 O       -6.6450     1.2340     0.2690 O.3   1 <1>  -0.3630 
 17 C       -5.6900    -3.8430    -0.7950 C.3   1 <1>   0.1200 
 18 O       -7.0730    -1.5450     0.1180 O.3   1 <1>  -0.3630 
 19 C       -7.4080     1.3200    -0.9130 C.3   1 <1>   0.1200 
 20 C       -5.1540    -5.2150    -1.1920 C.3   1 <1>  -0.2400 
 21 C       -7.7960    -1.5420     1.3260 C.3   1 <1>   0.1200 
 22 C       -8.3340     2.5260    -0.7890 C.3   1 <1>  -0.2400 
 23 C       -9.1560    -2.1810     1.0640 C.3   1 <1>  -0.2400 
 24 H        0.4360     4.0520     0.9320 H     1 <1>   0.1500 
 25 H       -2.6030    -2.0150     0.2940 H     1 <1>   0.1500 
 26 H       -4.2360     1.9280     0.5080 H     1 <1>   0.1500 
 27 H       -5.8440    -3.2250    -1.6630 H     1 <1>   0.0800 
 28 H       -6.6080    -3.9420    -0.2440 H     1 <1>   0.0800 
 29 H       -7.9800     0.4170    -1.0300 H     1 <1>   0.0800 
 30 H       -6.7370     1.4360    -1.7470 H     1 <1>   0.0800 
 31 H       -4.2300    -5.1080    -1.7320 H     1 <1>   0.0800 
 32 H       -5.8660    -5.7130    -1.8250 H     1 <1>   0.0800 
 33 H       -4.9920    -5.8160    -0.3160 H     1 <1>   0.0800 
 34 H       -7.9100    -0.5250     1.6610 H     1 <1>   0.0800 
 35 H       -7.2400    -2.1040     2.0560 H     1 <1>   0.0800 
 36 H       -8.9910     2.4010     0.0530 H     1 <1>   0.0800 
 37 H       -8.9290     2.6210    -1.6790 H     1 <1>   0.0800 
 38 H       -7.7570     3.4250    -0.6650 H     1 <1>   0.0800 
 39 H       -9.6930    -1.6160     0.3240 H     1 <1>   0.0800 
 40 H       -9.7320    -2.1930     1.9710 H     1 <1>   0.0800 
 41 H       -9.0300    -3.1940     0.7250 H     1 <1>   0.0800 
@<TRIPOS>BOND
  1   1   2  1   
  2   1   3  1   
  3   2   4  2   
  4   2   5  1   
  5   3   6  2   
  6   3   7  1   
  7   4   8  1   
  8   5   6  1   
  9   5   9  1   
 10   7  10  ar  
 11   7  11  ar  
 12   8   9  2   
 13   9  24  1   
 14  10  12  ar  
 15  10  25  1   
 16  11  13  ar  
 17  11  26  1   
 18  12  14  1   
 19  12  15  ar  
 20  13  15  ar  
 21  13  16  1   
 22  14  17  1   
 23  15  18  1   
 24  16  19  1   
 25  17  20  1   
 26  17  27  1   
 27  17  28  1   
 28  18  21  1   
 29  19  22  1   
 30  19  29  1   
 31  19  30  1   
 32  20  31  1   
 33  20  32  1   
 34  20  33  1   
 35  21  23  1   
 36  21  34  1   
 37  21  35  1   
 38  22  36  1   
 39  22  37  1   
 40  22  38  1   
 41  23  39  1   
 42  23  40  1   
 43  23  41  1   
@<TRIPOS>SUBSTRUCTURE
  1 ****   7 GROUP 4 **** **** 0

# MOE 2024.06 (io_trps.svl 2023.06)
