@<TRIPOS>MOLECULE
Morpholine-4-carboxylic acid 3-[1,3,4]oxadiazol-2-yl-phenyl ester
33 35 1 0 0 
SMALL
USER_CHARGES


@<TRIPOS>ATOM
  1 O        0.4110    -0.1730    -0.8320 O.2   1 <1>  -0.5700 
  2 C        0.5870    -1.3460    -0.5670 C.2   1 <1>   0.7800 
  3 O        1.7890    -1.7810    -0.1580 O.3   1 <1>  -0.2330 
  4 N       -0.4190    -2.2730    -0.6760 N.am  1 <1>  -0.6600 
  5 C        2.8720    -1.0130     0.1290 C.ar  1 <1>   0.0820 
  6 C       -0.2820    -3.7110    -0.3020 C.3   1 <1>   0.1400 
  7 C       -1.7870    -1.9050    -1.1450 C.3   1 <1>   0.1400 
  8 C        4.1150    -1.4910    -0.2470 C.ar  1 <1>  -0.1500 
  9 C        2.7720     0.1990     0.8000 C.ar  1 <1>  -0.1500 
 10 C       -1.4380    -4.1420     0.6160 C.3   1 <1>   0.1200 
 11 C       -2.8530    -2.4450    -0.1770 C.3   1 <1>   0.1200 
 12 C        5.2870    -0.7800     0.0200 C.ar  1 <1>   0.0530 
 13 C        3.9170     0.9230     1.0770 C.ar  1 <1>  -0.1500 
 14 O       -2.6730    -3.8160     0.0430 O.3   1 <1>  -0.5600 
 15 C        6.5880    -1.2780    -0.3770 C.2   1 <1>   0.4250 
 16 C        5.1530     0.4380     0.6910 C.ar  1 <1>  -0.1500 
 17 O        6.6850    -2.4210    -1.0180 O.3   1 <1>  -0.2800 
 18 N        7.7300    -0.7130    -0.1710 N.2   1 <1>  -0.3380 
 19 C        7.9730    -2.4850    -1.1750 C.2   1 <1>   0.3280 
 20 N        8.6330    -1.5080    -0.6960 N.2   1 <1>  -0.3380 
 21 H        0.6520    -3.8910     0.2010 H     1 <1>   0.0800 
 22 H       -0.3000    -4.3110    -1.1950 H     1 <1>   0.0800 
 23 H       -1.9510    -2.3250    -2.1220 H     1 <1>   0.0800 
 24 H       -1.8890    -0.8360    -1.2230 H     1 <1>   0.0800 
 25 H        4.1670    -2.4340    -0.7600 H     1 <1>   0.1500 
 26 H        1.8140     0.5780     1.1060 H     1 <1>   0.1500 
 27 H       -1.3640    -3.6580     1.5740 H     1 <1>   0.0800 
 28 H       -1.4170    -5.2070     0.7650 H     1 <1>   0.0800 
 29 H       -3.8360    -2.3050    -0.5920 H     1 <1>   0.0800 
 30 H       -2.8010    -1.9320     0.7680 H     1 <1>   0.0800 
 31 H        3.8430     1.8650     1.5920 H     1 <1>   0.1500 
 32 H        6.0340     1.0170     0.9140 H     1 <1>   0.1500 
 33 H        8.3920    -3.3350    -1.6850 H     1 <1>   0.1500 
@<TRIPOS>BOND
  1   1   2  2   
  2   2   3  1   
  3   2   4  am  
  4   3   5  1   
  5   4   6  1   
  6   4   7  1   
  7   5   8  ar  
  8   5   9  ar  
  9   6  10  1   
 10   6  21  1   
 11   6  22  1   
 12   7  11  1   
 13   7  23  1   
 14   7  24  1   
 15   8  12  ar  
 16   8  25  1   
 17   9  13  ar  
 18   9  26  1   
 19  10  14  1   
 20  10  27  1   
 21  10  28  1   
 22  11  14  1   
 23  11  29  1   
 24  11  30  1   
 25  12  15  1   
 26  12  16  ar  
 27  13  16  ar  
 28  13  31  1   
 29  15  17  1   
 30  15  18  2   
 31  16  32  1   
 32  17  19  1   
 33  18  20  1   
 34  19  20  2   
 35  19  33  1   
@<TRIPOS>SUBSTRUCTURE
  1 ****   5 GROUP 4 **** **** 0

# MOE 2024.06 (io_trps.svl 2023.06)
