@<TRIPOS>MOLECULE
1-(2,5-Dimethoxy-benzenesulfonyl)-piperidine-4-carboxylic acid (3,5-dimethyl-phe
58 60 1 0 0 
SMALL
USER_CHARGES


@<TRIPOS>ATOM
  1 S        0.2190    -0.9580    -1.3620 S.o2  1 <1>   1.4470 
  2 O        0.4910    -2.3810    -1.3730 O.2   1 <1>  -0.6500 
  3 O        0.0480    -0.3040    -2.6430 O.2   1 <1>  -0.6500 
  4 N        1.5590    -0.2260    -0.6180 N.am  1 <1>  -0.8490 
  5 C       -1.1630    -0.6700    -0.2210 C.ar  1 <1>  -0.0090 
  6 C        1.4480     1.2370    -0.6060 C.3   1 <1>   0.1960 
  7 C        2.8030    -0.6720    -1.2520 C.3   1 <1>   0.1960 
  8 C       -1.9670     0.4670    -0.2870 C.ar  1 <1>   0.0830 
  9 C       -1.4380    -1.5980     0.7780 C.ar  1 <1>  -0.1500 
 10 C        2.6250     1.8630     0.1450 C.3   1 <1>  -0.1600 
 11 C        4.0210    -0.1010    -0.5210 C.3   1 <1>  -0.1600 
 12 O       -1.7300     1.4260    -1.2070 O.3   1 <1>  -0.3620 
 13 C       -3.0090     0.6640     0.6070 C.ar  1 <1>  -0.1500 
 14 C       -2.4850    -1.4130     1.6760 C.ar  1 <1>   0.0830 
 15 C        3.9670     1.4340    -0.4660 C.3   1 <1>  -0.0190 
 16 C       -2.6010     1.4570    -2.3160 C.3   1 <1>   0.0400 
 17 C       -3.2690    -0.2770     1.5830 C.ar  1 <1>  -0.1500 
 18 O       -2.7990    -2.2920     2.6620 O.3   1 <1>  -0.3630 
 19 C        5.1520     2.0200     0.3020 C.2   1 <1>   0.5690 
 20 C       -2.0600    -3.4800     2.8450 C.3   1 <1>   0.0400 
 21 O        5.3290     1.6810     1.4460 O.2   1 <1>  -0.5700 
 22 N        5.9590     2.9040    -0.3640 N.am  1 <1>  -0.5470 
 23 C        7.0940     3.6220     0.0460 C.ar  1 <1>   0.1170 
 24 C        7.9300     4.1500    -0.9310 C.ar  1 <1>  -0.1500 
 25 C        7.4170     3.8470     1.3810 C.ar  1 <1>  -0.1500 
 26 C        9.0570     4.8790    -0.5960 C.ar  1 <1>  -0.1430 
 27 C        8.5440     4.5700     1.7320 C.ar  1 <1>  -0.1430 
 28 C        9.3600     5.0850     0.7390 C.ar  1 <1>  -0.1500 
 29 C        9.9650     5.4490    -1.6710 C.3   1 <1>  -0.0970 
 30 C        8.8840     4.8030     3.1930 C.3   1 <1>  -0.0970 
 31 H        0.5410     1.5280    -0.1050 H     1 <1>   0.0800 
 32 H        1.4100     1.6140    -1.6150 H     1 <1>   0.0800 
 33 H        2.8150    -0.3680    -2.2860 H     1 <1>   0.0800 
 34 H        2.8620    -1.7480    -1.2190 H     1 <1>   0.0800 
 35 H       -0.8150    -2.4710     0.8390 H     1 <1>   0.1500 
 36 H        2.5800     1.5590     1.1770 H     1 <1>   0.0800 
 37 H        2.5370     2.9350     0.1160 H     1 <1>   0.0800 
 38 H        4.9180    -0.4170    -1.0200 H     1 <1>   0.0800 
 39 H        4.0430    -0.5020     0.4780 H     1 <1>   0.0800 
 40 H       -3.6090     1.5540     0.5400 H     1 <1>   0.1500 
 41 H        4.0020     1.8010    -1.4770 H     1 <1>   0.0800 
 42 H       -2.2680     2.2310    -2.9830 H     1 <1>   0.0800 
 43 H       -3.6000     1.6650    -1.9770 H     1 <1>   0.0800 
 44 H       -2.5630     0.5040    -2.8170 H     1 <1>   0.0800 
 45 H       -4.0760    -0.1370     2.2800 H     1 <1>   0.1500 
 46 H       -2.4860    -4.0140     3.6750 H     1 <1>   0.0800 
 47 H       -1.0370    -3.2260     3.0610 H     1 <1>   0.0800 
 48 H       -2.1290    -4.0760     1.9530 H     1 <1>   0.0800 
 49 H        5.7170     3.0500    -1.3400 H     1 <1>   0.3700 
 50 H        7.6980     3.9860    -1.9660 H     1 <1>   0.1500 
 51 H        6.7840     3.4580     2.1560 H     1 <1>   0.1500 
 52 H       10.2360     5.6490     1.0080 H     1 <1>   0.1500 
 53 H        9.4770     5.4430    -2.6290 H     1 <1>   0.0800 
 54 H       10.8630     4.8620    -1.7360 H     1 <1>   0.0800 
 55 H       10.2290     6.4640    -1.4310 H     1 <1>   0.0800 
 56 H        8.3860     4.0830     3.8170 H     1 <1>   0.0800 
 57 H        8.5740     5.7890     3.4860 H     1 <1>   0.0800 
 58 H        9.9440     4.7090     3.3470 H     1 <1>   0.0800 
@<TRIPOS>BOND
  1   1   2  2   
  2   1   3  2   
  3   1   4  am  
  4   1   5  1   
  5   4   6  1   
  6   4   7  1   
  7   5   8  ar  
  8   5   9  ar  
  9   6  10  1   
 10   6  31  1   
 11   6  32  1   
 12   7  11  1   
 13   7  33  1   
 14   7  34  1   
 15   8  12  1   
 16   8  13  ar  
 17   9  14  ar  
 18   9  35  1   
 19  10  15  1   
 20  10  36  1   
 21  10  37  1   
 22  11  15  1   
 23  11  38  1   
 24  11  39  1   
 25  12  16  1   
 26  13  17  ar  
 27  13  40  1   
 28  14  17  ar  
 29  14  18  1   
 30  15  19  1   
 31  15  41  1   
 32  16  42  1   
 33  16  43  1   
 34  16  44  1   
 35  17  45  1   
 36  18  20  1   
 37  19  21  2   
 38  19  22  am  
 39  20  46  1   
 40  20  47  1   
 41  20  48  1   
 42  22  23  1   
 43  22  49  1   
 44  23  24  ar  
 45  23  25  ar  
 46  24  26  ar  
 47  24  50  1   
 48  25  27  ar  
 49  25  51  1   
 50  26  28  ar  
 51  26  29  1   
 52  27  28  ar  
 53  27  30  1   
 54  28  52  1   
 55  29  53  1   
 56  29  54  1   
 57  29  55  1   
 58  30  56  1   
 59  30  57  1   
 60  30  58  1   
@<TRIPOS>SUBSTRUCTURE
  1 ****  10 GROUP 4 **** **** 0

# MOE 2024.06 (io_trps.svl 2023.06)
