@<TRIPOS>MOLECULE
2-(3,4-Dimethyl-phenoxy)-N-(2-ethyl-2H-tetrazol-5-yl)-acetamide
37 38 1 0 0 
SMALL
USER_CHARGES


@<TRIPOS>ATOM
  1 O       -0.0380     0.6790     1.7320 O.2   1 <1>  -0.5700 
  2 C        0.2680    -0.2450     1.0180 C.2   1 <1>   0.5690 
  3 N       -0.6140    -0.9270     0.2420 N.am  1 <1>  -0.4930 
  4 C        1.7310    -0.6650     0.9890 C.3   1 <1>   0.1810 
  5 C       -1.9790    -0.7790     0.0650 C.2   1 <1>   0.5790 
  6 O        1.9360    -1.7590     0.1050 O.3   1 <1>  -0.3630 
  7 N       -2.7480     0.1260     0.6680 N.2   1 <1>  -0.2270 
  8 N       -2.6000    -1.5550    -0.7370 N.2   1 <1>  -0.7070 
  9 C        3.1700    -2.2940    -0.0730 C.ar  1 <1>   0.0830 
 10 N       -3.9290    -0.0770     0.2340 N.2   1 <1>  -0.4180 
 11 N       -3.8300    -1.0900    -0.6090 N.pl3 1 <1>   0.5800 
 12 C        4.3160    -1.8390     0.5730 C.ar  1 <1>  -0.1500 
 13 C        3.2670    -3.3560    -0.9550 C.ar  1 <1>  -0.1500 
 14 C       -4.9840    -1.6500    -1.3440 C.3   1 <1>   0.0960 
 15 C        5.5450    -2.4390     0.3400 C.ar  1 <1>  -0.1430 
 16 C        4.4890    -3.9560    -1.1910 C.ar  1 <1>  -0.1500 
 17 C       -5.5770    -2.8700    -0.6240 C.3   1 <1>  -0.2400 
 18 C        5.6330    -3.5060    -0.5490 C.ar  1 <1>  -0.1430 
 19 C        6.7760    -1.9120     1.0650 C.3   1 <1>  -0.0970 
 20 C        6.9590    -4.1950    -0.8380 C.3   1 <1>  -0.0970 
 21 H       -0.2280    -1.6850    -0.3150 H     1 <1>   0.3700 
 22 H        2.0320    -0.9640     1.9760 H     1 <1>   0.0800 
 23 H        2.3300     0.1610     0.6540 H     1 <1>   0.0800 
 24 H        4.2680    -1.0180     1.2620 H     1 <1>   0.1500 
 25 H        2.3850    -3.7100    -1.4560 H     1 <1>   0.1500 
 26 H       -4.6500    -1.9280    -2.3270 H     1 <1>   0.0800 
 27 H       -5.7270    -0.8800    -1.4390 H     1 <1>   0.0800 
 28 H        4.5430    -4.7800    -1.8810 H     1 <1>   0.1500 
 29 H       -4.8380    -3.6480    -0.5360 H     1 <1>   0.0800 
 30 H       -6.4120    -3.2540    -1.1820 H     1 <1>   0.0800 
 31 H       -5.9210    -2.5930     0.3580 H     1 <1>   0.0800 
 32 H        6.5260    -1.0890     1.7100 H     1 <1>   0.0800 
 33 H        7.5050    -1.5720     0.3530 H     1 <1>   0.0800 
 34 H        7.2090    -2.6910     1.6670 H     1 <1>   0.0800 
 35 H        7.3640    -4.6090     0.0680 H     1 <1>   0.0800 
 36 H        7.6600    -3.4900    -1.2460 H     1 <1>   0.0800 
 37 H        6.8340    -4.9940    -1.5460 H     1 <1>   0.0800 
@<TRIPOS>BOND
  1   1   2  2   
  2   2   3  am  
  3   2   4  1   
  4   3   5  1   
  5   3  21  1   
  6   4   6  1   
  7   4  22  1   
  8   4  23  1   
  9   5   7  1   
 10   5   8  2   
 11   6   9  1   
 12   7  10  2   
 13   8  11  1   
 14   9  12  ar  
 15   9  13  ar  
 16  10  11  1   
 17  11  14  1   
 18  12  15  ar  
 19  12  24  1   
 20  13  16  ar  
 21  13  25  1   
 22  14  17  1   
 23  14  26  1   
 24  14  27  1   
 25  15  18  ar  
 26  15  19  1   
 27  16  18  ar  
 28  16  28  1   
 29  17  29  1   
 30  17  30  1   
 31  17  31  1   
 32  18  20  1   
 33  19  32  1   
 34  19  33  1   
 35  19  34  1   
 36  20  35  1   
 37  20  36  1   
 38  20  37  1   
@<TRIPOS>SUBSTRUCTURE
  1 ****   6 GROUP 4 **** **** 0

# MOE 2024.06 (io_trps.svl 2023.06)
