@<TRIPOS>MOLECULE
3-tert-Butyl-6-((E)-2-furan-2-yl-vinyl)-[1,2,4]triazolo[3,4-b][1,3,4]thiadiazole
33 35 1 0 0 
SMALL
USER_CHARGES


@<TRIPOS>ATOM
  1 S        0.1110    -0.2400     0.4560 S.3   1 <1>  -0.1970 
  2 C        1.3360     0.9960     0.3350 C.2   1 <1>   0.2420 
  3 C       -1.1280     1.0080     0.1510 C.2   1 <1>   0.5770 
  4 N        2.6160     1.0350     0.4220 N.2   1 <1>  -0.3380 
  5 N        0.7500     2.1550     0.0930 N.pl3 1 <1>   0.5050 
  6 N       -0.6420     2.1840    -0.0140 N.2   1 <1>  -0.6520 
  7 C       -2.5010     0.6170     0.1170 C.2   1 <1>  -0.1360 
  8 N        2.9220     2.3300     0.2230 N.2   1 <1>  -0.3380 
  9 C        1.8110     2.9840     0.0300 C.2   1 <1>   0.0060 
 10 C       -3.0420    -0.6140     0.2880 C.2   1 <1>  -0.1050 
 11 C        1.6870     4.4920    -0.2370 C.3   1 <1>   0.1800 
 12 C       -4.4300    -0.9470     0.2430 C.2   1 <1>   0.0950 
 13 C        3.0720     5.1600    -0.2490 C.3   1 <1>  -0.2400 
 14 C        1.0280     4.7330    -1.6030 C.3   1 <1>  -0.2400 
 15 C        0.8460     5.1550     0.8640 C.3   1 <1>  -0.2400 
 16 O       -4.7980    -2.2060     0.4300 O.3   1 <1>  -0.2800 
 17 C       -5.5440    -0.1930     0.0320 C.2   1 <1>  -0.1500 
 18 C       -6.1090    -2.2790     0.3470 C.2   1 <1>  -0.0100 
 19 C       -6.6350    -1.0610     0.1000 C.2   1 <1>  -0.1500 
 20 H       -3.1570     1.4460    -0.0730 H     1 <1>   0.1500 
 21 H       -2.4090    -1.4640     0.4790 H     1 <1>   0.1500 
 22 H        2.9890     6.2160    -0.4360 H     1 <1>   0.0800 
 23 H        3.6900     4.7260    -1.0160 H     1 <1>   0.0800 
 24 H        3.5640     5.0190     0.6970 H     1 <1>   0.0800 
 25 H        0.9790     5.7860    -1.8180 H     1 <1>   0.0800 
 26 H        0.0270     4.3400    -1.6220 H     1 <1>   0.0800 
 27 H        1.5970     4.2530    -2.3780 H     1 <1>   0.0800 
 28 H       -0.1560     4.7660     0.8690 H     1 <1>   0.0800 
 29 H        0.7930     6.2180     0.7100 H     1 <1>   0.0800 
 30 H        1.2880     4.9710     1.8270 H     1 <1>   0.0800 
 31 H       -5.6050     0.8640    -0.1530 H     1 <1>   0.1500 
 32 H       -6.5880    -3.2340     0.4740 H     1 <1>   0.1500 
 33 H       -7.6680    -0.7870    -0.0230 H     1 <1>   0.1500 
@<TRIPOS>BOND
  1   1   2  1   
  2   1   3  1   
  3   2   4  2   
  4   2   5  1   
  5   3   6  2   
  6   3   7  1   
  7   4   8  1   
  8   5   6  1   
  9   5   9  1   
 10   7  10  2   
 11   7  20  1   
 12   8   9  2   
 13   9  11  1   
 14  10  12  1   
 15  10  21  1   
 16  11  13  1   
 17  11  14  1   
 18  11  15  1   
 19  12  16  1   
 20  12  17  2   
 21  13  22  1   
 22  13  23  1   
 23  13  24  1   
 24  14  25  1   
 25  14  26  1   
 26  14  27  1   
 27  15  28  1   
 28  15  29  1   
 29  15  30  1   
 30  16  18  1   
 31  17  19  1   
 32  17  31  1   
 33  18  19  2   
 34  18  32  1   
 35  19  33  1   
@<TRIPOS>SUBSTRUCTURE
  1 ****   3 GROUP 4 **** **** 0

# MOE 2024.06 (io_trps.svl 2023.06)
