@<TRIPOS>MOLECULE
N-(3-Methoxy-propyl)-4-(2-methyl-thiazol-4-yl)-benzamide
38 39 1 0 0 
SMALL
USER_CHARGES


@<TRIPOS>ATOM
  1 S        0.5300     0.1170    -0.3610 S.3   1 <1>  -0.0800 
  2 C        0.2510    -1.5580     0.0450 C.2   1 <1>   0.1980 
  3 C        2.2270    -0.2280    -0.4650 C.2   1 <1>  -0.1100 
  4 N        1.3030    -2.2680     0.0930 N.2   1 <1>  -0.5650 
  5 C       -1.1770    -1.9840     0.2920 C.3   1 <1>  -0.0600 
  6 C        2.4560    -1.5310    -0.1940 C.2   1 <1>   0.1730 
  7 C        3.7460    -2.1980    -0.1770 C.ar  1 <1>   0.0540 
  8 C        4.9350    -1.4810    -0.0500 C.ar  1 <1>  -0.1500 
  9 C        3.8580    -3.5820    -0.2910 C.ar  1 <1>  -0.1500 
 10 C        6.1630    -2.1140    -0.0350 C.ar  1 <1>  -0.1500 
 11 C        5.0850    -4.2170    -0.2760 C.ar  1 <1>  -0.1500 
 12 C        6.2750    -3.5000    -0.1410 C.ar  1 <1>   0.0860 
 13 C        7.5720    -4.1520    -0.1090 C.2   1 <1>   0.5440 
 14 O        8.5750    -3.5620    -0.4630 O.2   1 <1>  -0.5700 
 15 N        7.6970    -5.4380     0.3390 N.am  1 <1>  -0.7300 
 16 C        8.9580    -6.2060     0.3740 C.3   1 <1>   0.1400 
 17 C        8.6540    -7.6750     0.0970 C.3   1 <1>  -0.1600 
 18 C        9.9390    -8.4990     0.0820 C.3   1 <1>   0.1200 
 19 O        9.5860    -9.8240    -0.1280 O.3   1 <1>  -0.5600 
 20 C       10.6680   -10.6960    -0.1860 C.3   1 <1>   0.0400 
 21 H        2.8860     0.5800    -0.7210 H     1 <1>   0.1500 
 22 H       -1.5870    -1.4250     1.1130 H     1 <1>   0.0800 
 23 H       -1.2080    -3.0310     0.5320 H     1 <1>   0.0800 
 24 H       -1.7670    -1.8080    -0.5880 H     1 <1>   0.0800 
 25 H        4.9030    -0.4110     0.0430 H     1 <1>   0.1500 
 26 H        2.9620    -4.1700    -0.3960 H     1 <1>   0.1500 
 27 H        7.0630    -1.5310     0.0620 H     1 <1>   0.1500 
 28 H        5.1180    -5.2860    -0.3810 H     1 <1>   0.1500 
 29 H        6.8900    -5.8970     0.7620 H     1 <1>   0.3700 
 30 H        9.4130    -6.0930     1.3430 H     1 <1>   0.0800 
 31 H        9.6360    -5.8210    -0.3700 H     1 <1>   0.0800 
 32 H        8.1750    -7.7660    -0.8620 H     1 <1>   0.0800 
 33 H        8.0040    -8.0600     0.8620 H     1 <1>   0.0800 
 34 H       10.4530    -8.4240     1.0270 H     1 <1>   0.0800 
 35 H       10.5870    -8.1800    -0.7180 H     1 <1>   0.0800 
 36 H       10.2890   -11.6890    -0.3490 H     1 <1>   0.0800 
 37 H       11.2040   -10.6610     0.7470 H     1 <1>   0.0800 
 38 H       11.3090   -10.4140    -1.0040 H     1 <1>   0.0800 
@<TRIPOS>BOND
  1   1   2  1   
  2   1   3  1   
  3   2   4  2   
  4   2   5  1   
  5   3   6  2   
  6   3  21  1   
  7   4   6  1   
  8   5  22  1   
  9   5  23  1   
 10   5  24  1   
 11   6   7  1   
 12   7   8  ar  
 13   7   9  ar  
 14   8  10  ar  
 15   8  25  1   
 16   9  11  ar  
 17   9  26  1   
 18  10  12  ar  
 19  10  27  1   
 20  11  12  ar  
 21  11  28  1   
 22  12  13  1   
 23  13  14  2   
 24  13  15  am  
 25  15  16  1   
 26  15  29  1   
 27  16  17  1   
 28  16  30  1   
 29  16  31  1   
 30  17  18  1   
 31  17  32  1   
 32  17  33  1   
 33  18  19  1   
 34  18  34  1   
 35  18  35  1   
 36  19  20  1   
 37  20  36  1   
 38  20  37  1   
 39  20  38  1   
@<TRIPOS>SUBSTRUCTURE
  1 ****  11 GROUP 4 **** **** 0

# MOE 2024.06 (io_trps.svl 2023.06)
