@<TRIPOS>MOLECULE
N-[1,3,4]Thiadiazol-2-yl-4-p-tolyloxy-butyramide
34 35 1 0 0 
SMALL
USER_CHARGES


@<TRIPOS>ATOM
  1 S        0.2950    -0.8160    -0.0030 S.3   1 <1>  -0.0800 
  2 C        1.3250     0.5850    -0.0310 C.2   1 <1>   0.4420 
  3 C        1.7310    -1.7780    -0.0020 C.2   1 <1>   0.2280 
  4 N        2.5670     0.2660    -0.0370 N.2   1 <1>  -0.3380 
  5 N        0.8310     1.8720    -0.0450 N.am  1 <1>  -0.4940 
  6 N        2.7940    -1.0820    -0.0210 N.2   1 <1>  -0.3380 
  7 C       -0.3910     2.4680    -0.0430 C.2   1 <1>   0.5690 
  8 O       -0.4320     3.6700    -0.0590 O.2   1 <1>  -0.5700 
  9 C       -1.6920     1.6710    -0.0200 C.3   1 <1>  -0.0990 
 10 C       -2.9680     2.5350    -0.0210 C.3   1 <1>  -0.1600 
 11 C       -4.2280     1.6700     0.0030 C.3   1 <1>   0.1200 
 12 O       -5.3470     2.5250     0.0010 O.3   1 <1>  -0.3630 
 13 C       -6.6100     2.0320     0.0200 C.ar  1 <1>   0.0820 
 14 C       -7.6410     2.9570     0.0170 C.ar  1 <1>  -0.1500 
 15 C       -6.9150     0.6730     0.0410 C.ar  1 <1>  -0.1500 
 16 C       -8.9600     2.5410     0.0350 C.ar  1 <1>  -0.1500 
 17 C       -8.2360     0.2600     0.0600 C.ar  1 <1>  -0.1500 
 18 C       -9.2650     1.1890     0.0590 C.ar  1 <1>  -0.1430 
 19 C      -10.7120     0.7310     0.0770 C.3   1 <1>  -0.0970 
 20 H        1.6270    -2.8480     0.0140 H     1 <1>   0.1500 
 21 H        1.5720     2.5710    -0.0610 H     1 <1>   0.3700 
 22 H       -1.6950     1.0590     0.8630 H     1 <1>   0.0800 
 23 H       -1.7110     1.0350    -0.8850 H     1 <1>   0.0800 
 24 H       -2.9800     3.1530    -0.9030 H     1 <1>   0.0800 
 25 H       -2.9640     3.1770     0.8440 H     1 <1>   0.0800 
 26 H       -4.2640     1.0700     0.8960 H     1 <1>   0.0800 
 27 H       -4.2800     1.0460    -0.8720 H     1 <1>   0.0800 
 28 H       -7.4010     4.0050     0.0000 H     1 <1>   0.1500 
 29 H       -6.1450    -0.0730     0.0430 H     1 <1>   0.1500 
 30 H       -9.7470     3.2740     0.0310 H     1 <1>   0.1500 
 31 H       -8.4630    -0.7920     0.0750 H     1 <1>   0.1500 
 32 H      -11.3300     1.4580     0.5730 H     1 <1>   0.0800 
 33 H      -10.8030    -0.2040     0.6000 H     1 <1>   0.0800 
 34 H      -11.0650     0.6030    -0.9300 H     1 <1>   0.0800 
@<TRIPOS>BOND
  1   1   2  1   
  2   1   3  1   
  3   2   4  2   
  4   2   5  1   
  5   3   6  2   
  6   3  20  1   
  7   4   6  1   
  8   5   7  am  
  9   5  21  1   
 10   7   8  2   
 11   7   9  1   
 12   9  10  1   
 13   9  22  1   
 14   9  23  1   
 15  10  11  1   
 16  10  24  1   
 17  10  25  1   
 18  11  12  1   
 19  11  26  1   
 20  11  27  1   
 21  12  13  1   
 22  13  14  ar  
 23  13  15  ar  
 24  14  16  ar  
 25  14  28  1   
 26  15  17  ar  
 27  15  29  1   
 28  16  18  ar  
 29  16  30  1   
 30  17  18  ar  
 31  17  31  1   
 32  18  19  1   
 33  19  32  1   
 34  19  33  1   
 35  19  34  1   
@<TRIPOS>SUBSTRUCTURE
  1 ****  11 GROUP 4 **** **** 0

# MOE 2024.06 (io_trps.svl 2023.06)
