@<TRIPOS>MOLECULE
2-Chloro-N-[1-(4-ethyl-5-mercapto-4H-[1,2,4]triazol-3-yl)-ethyl]-benzamide
35 36 1 0 0 
SMALL
USER_CHARGES


@<TRIPOS>ATOM
  1 CL       1.4460    -1.5100    -1.8860 Cl    1 <1>  -0.1770 
  2 C        0.9160    -2.3340    -0.4370 C.ar  1 <1>   0.1770 
  3 C        1.7690    -2.5040     0.6580 C.ar  1 <1>   0.0860 
  4 C       -0.3870    -2.7970    -0.4340 C.ar  1 <1>  -0.1500 
  5 C        3.1460    -2.0510     0.6970 C.2   1 <1>   0.5440 
  6 C        1.2310    -3.1580     1.7700 C.ar  1 <1>  -0.1500 
  7 C       -0.8850    -3.4480     0.6800 C.ar  1 <1>  -0.1500 
  8 O        3.6200    -1.6370     1.7330 O.2   1 <1>  -0.5700 
  9 N        3.9540    -2.1030    -0.4030 N.am  1 <1>  -0.7300 
 10 C       -0.0710    -3.6250     1.7840 C.ar  1 <1>  -0.1500 
 11 C        5.3750    -1.6540    -0.4580 C.3   1 <1>   0.3880 
 12 C        6.2720    -2.1980     0.6860 C.2   1 <1>   0.4850 
 13 C        5.3740    -0.1250    -0.5780 C.3   1 <1>  -0.2400 
 14 N        6.9820    -1.4650     1.4740 N.2   1 <1>  -0.2600 
 15 N        6.4370    -3.5480     0.9460 N.pl3 1 <1>  -0.7640 
 16 N        7.6170    -2.3650     2.2800 N.pl3 1 <1>  -0.3930 
 17 C        7.2830    -3.5930     1.9570 C.cat 1 <1>   0.7360 
 18 C        5.7820    -4.7330     0.3710 C.3   1 <1>   0.3540 
 19 S        7.8520    -4.9250     2.6920 S.3   1 <1>  -0.9360 
 20 C        6.4890    -5.1210    -0.9230 C.3   1 <1>  -0.2400 
 21 H       -1.0110    -2.6460    -1.2980 H     1 <1>   0.1500 
 22 H        1.8510    -3.2990     2.6410 H     1 <1>   0.1500 
 23 H       -1.8990    -3.8110     0.6910 H     1 <1>   0.1500 
 24 H        3.5060    -2.2150    -1.3150 H     1 <1>   0.3700 
 25 H       -0.4530    -4.1270     2.6590 H     1 <1>   0.1500 
 26 H        5.7950    -2.0420    -1.3680 H     1 <1>   0.0800 
 27 H        4.9810     0.3170     0.3210 H     1 <1>   0.0800 
 28 H        4.7780     0.1860    -1.4170 H     1 <1>   0.0800 
 29 H        6.3770     0.2330    -0.7220 H     1 <1>   0.0800 
 30 H        8.2510    -2.1790     3.0550 H     1 <1>   0.4500 
 31 H        4.7430    -4.5260     0.1880 H     1 <1>   0.0800 
 32 H        5.8310    -5.5540     1.0680 H     1 <1>   0.0800 
 33 H        6.4270    -4.3310    -1.6470 H     1 <1>   0.0800 
 34 H        6.0300    -6.0020    -1.3330 H     1 <1>   0.0800 
 35 H        7.5210    -5.3420    -0.7160 H     1 <1>   0.0800 
@<TRIPOS>BOND
  1   1   2  1   
  2   2   3  ar  
  3   2   4  ar  
  4   3   5  1   
  5   3   6  ar  
  6   4   7  ar  
  7   4  21  1   
  8   5   8  2   
  9   5   9  am  
 10   6  10  ar  
 11   6  22  1   
 12   7  10  ar  
 13   7  23  1   
 14   9  11  1   
 15   9  24  1   
 16  10  25  1   
 17  11  12  1   
 18  11  13  1   
 19  11  26  1   
 20  12  14  2   
 21  12  15  1   
 22  13  27  1   
 23  13  28  1   
 24  13  29  1   
 25  14  16  1   
 26  15  17  ar  
 27  15  18  1   
 28  16  17  ar  
 29  16  30  1   
 30  17  19  1   
 31  18  20  1   
 32  18  31  1   
 33  18  32  1   
 34  20  33  1   
 35  20  34  1   
 36  20  35  1   
@<TRIPOS>SUBSTRUCTURE
  1 ****   5 GROUP 4 **** **** 0

# MOE 2024.06 (io_trps.svl 2023.06)
