@<TRIPOS>MOLECULE
1-[4-(3,4-Dimethyl-benzenesulfonyl)-piperazin-1-yl]-3-[1,2,4]triazol-1-yl-propan
49 51 1 0 0 
SMALL
USER_CHARGES


@<TRIPOS>ATOM
  1 S        0.7580     0.5350    -1.7350 S.o2  1 <1>   1.4470 
  2 O       -0.1840     0.3720    -2.8220 O.2   1 <1>  -0.6500 
  3 O        2.1130     0.9530    -2.0220 O.2   1 <1>  -0.6500 
  4 N        0.0940     1.7130    -0.7110 N.am  1 <1>  -0.8490 
  5 C        0.7820    -0.9440    -0.6860 C.ar  1 <1>  -0.0090 
  6 C       -1.3310     1.4620    -0.4270 C.3   1 <1>   0.1960 
  7 C        0.2700     3.0630    -1.2760 C.3   1 <1>   0.1960 
  8 C        0.0320    -2.0690    -1.0040 C.ar  1 <1>  -0.1500 
  9 C        1.5380    -0.9790     0.4770 C.ar  1 <1>  -0.1500 
 10 C       -1.9110     2.5020     0.5480 C.3   1 <1>   0.1400 
 11 C       -0.2700     4.1530    -0.3350 C.3   1 <1>   0.1400 
 12 C        0.0230    -3.1950    -0.1950 C.ar  1 <1>  -0.1440 
 13 C        1.5410    -2.0940     1.2940 C.ar  1 <1>  -0.1500 
 14 N       -1.6980     3.8900     0.0310 N.am  1 <1>  -0.6600 
 15 C        0.7850    -3.2070     0.9670 C.ar  1 <1>  -0.1430 
 16 C       -0.8220    -4.3930    -0.6050 C.3   1 <1>  -0.0970 
 17 C       -2.6710     4.8340    -0.1670 C.2   1 <1>   0.5690 
 18 C        0.8120    -4.4180     1.8900 C.3   1 <1>  -0.0970 
 19 O       -2.4200     5.9090    -0.6580 O.2   1 <1>  -0.5700 
 20 C       -4.1110     4.5430     0.2150 C.3   1 <1>  -0.0990 
 21 C       -5.0120     5.7810     0.0900 C.3   1 <1>   0.0960 
 22 N       -6.4160     5.4290     0.3720 N.pl3 1 <1>   0.3140 
 23 N       -6.8280     4.9720     1.5470 N.2   1 <1>  -0.7070 
 24 C       -7.4620     5.4780    -0.4570 C.2   1 <1>   0.0370 
 25 C       -8.0900     4.7840     1.3440 C.2   1 <1>   0.3660 
 26 N       -8.5390     5.0780     0.1170 N.2   1 <1>  -0.5650 
 27 H       -1.4440     0.4840     0.0090 H     1 <1>   0.0800 
 28 H       -1.9010     1.4850    -1.3410 H     1 <1>   0.0800 
 29 H       -0.2330     3.1330    -2.2270 H     1 <1>   0.0800 
 30 H        1.3180     3.2500    -1.4440 H     1 <1>   0.0800 
 31 H       -0.5550    -2.0580    -1.9070 H     1 <1>   0.1500 
 32 H        2.1310    -0.1200     0.7440 H     1 <1>   0.1500 
 33 H       -1.4190     2.4030     1.5000 H     1 <1>   0.0800 
 34 H       -2.9550     2.2950     0.6930 H     1 <1>   0.0800 
 35 H       -0.1700     5.1110    -0.8160 H     1 <1>   0.0800 
 36 H        0.3250     4.1720     0.5610 H     1 <1>   0.0800 
 37 H        2.1400    -2.0890     2.1880 H     1 <1>   0.1500 
 38 H       -1.3320    -4.2090    -1.5330 H     1 <1>   0.0800 
 39 H       -1.5580    -4.6010     0.1500 H     1 <1>   0.0800 
 40 H       -0.1960    -5.2580    -0.7320 H     1 <1>   0.0800 
 41 H       -0.1790    -4.6320     2.2480 H     1 <1>   0.0800 
 42 H        1.4470    -4.2430     2.7390 H     1 <1>   0.0800 
 43 H        1.1870    -5.2760     1.3610 H     1 <1>   0.0800 
 44 H       -4.1340     4.2020     1.2340 H     1 <1>   0.0800 
 45 H       -4.4800     3.7670    -0.4290 H     1 <1>   0.0800 
 46 H       -4.9510     6.1870    -0.9040 H     1 <1>   0.0800 
 47 H       -4.7020     6.5360     0.7890 H     1 <1>   0.0800 
 48 H       -7.3900     5.8120    -1.4760 H     1 <1>   0.1500 
 49 H       -8.7630     4.4120     2.1010 H     1 <1>   0.1500 
@<TRIPOS>BOND
  1   1   2  2   
  2   1   3  2   
  3   1   4  am  
  4   1   5  1   
  5   4   6  1   
  6   4   7  1   
  7   5   8  ar  
  8   5   9  ar  
  9   6  10  1   
 10   6  27  1   
 11   6  28  1   
 12   7  11  1   
 13   7  29  1   
 14   7  30  1   
 15   8  12  ar  
 16   8  31  1   
 17   9  13  ar  
 18   9  32  1   
 19  10  14  1   
 20  10  33  1   
 21  10  34  1   
 22  11  14  1   
 23  11  35  1   
 24  11  36  1   
 25  12  15  ar  
 26  12  16  1   
 27  13  15  ar  
 28  13  37  1   
 29  14  17  am  
 30  15  18  1   
 31  16  38  1   
 32  16  39  1   
 33  16  40  1   
 34  17  19  2   
 35  17  20  1   
 36  18  41  1   
 37  18  42  1   
 38  18  43  1   
 39  20  21  1   
 40  20  44  1   
 41  20  45  1   
 42  21  22  1   
 43  21  46  1   
 44  21  47  1   
 45  22  23  1   
 46  22  24  1   
 47  23  25  2   
 48  24  26  2   
 49  24  48  1   
 50  25  26  1   
 51  25  49  1   
@<TRIPOS>SUBSTRUCTURE
  1 ****   6 GROUP 4 **** **** 0

# MOE 2024.06 (io_trps.svl 2023.06)
