@<TRIPOS>MOLECULE
8-(3-Chloro-2-methyl-phenyl)-1-methyl-5,6,7,8-tetrahydro-1H-1,3,4b,8,9-pentaaza-
41 44 1 0 0 
SMALL
USER_CHARGES


@<TRIPOS>ATOM
  1 CL      -2.4010    -1.7870     1.9960 Cl    1 <1>  -0.1860 
  2 C       -3.0990    -1.1440     0.5280 C.ar  1 <1>   0.1680 
  3 C       -3.9550    -0.0520     0.5770 C.ar  1 <1>  -0.1530 
  4 C       -2.7750    -1.7710    -0.6600 C.ar  1 <1>  -0.1590 
  5 C       -4.5190     0.3940    -0.6220 C.ar  1 <1>   0.3030 
  6 C       -4.2390     0.6200     1.9230 C.3   1 <1>  -0.1060 
  7 C       -3.3160    -1.3070    -1.8440 C.ar  1 <1>  -0.1590 
  8 N       -5.4510     1.4380    -0.6500 N.pl3 1 <1>  -0.5810 
  9 C       -4.1840    -0.2310    -1.8190 C.ar  1 <1>  -0.1590 
 10 C       -6.7140     1.2940    -0.2080 C.cat 1 <1>   1.0680 
 11 C       -5.0150     2.7460    -1.2120 C.3   1 <1>   0.1590 
 12 N       -7.2710     0.1770     0.2570 N.pl3 1 <1>  -0.7050 
 13 N       -7.5920     2.2880    -0.1720 N.pl3 1 <1>  -0.7680 
 14 C       -5.7980     3.9000    -0.5660 C.3   1 <1>  -0.1690 
 15 C       -8.5550     0.4660     0.6060 C.2   1 <1>   0.4190 
 16 C       -8.7870     1.7760     0.3490 C.2   1 <1>   0.2690 
 17 C       -7.3130     3.6720    -0.6050 C.3   1 <1>   0.3460 
 18 N       -9.5050    -0.3900     1.1420 N.am  1 <1>  -0.4430 
 19 C      -10.0820     2.3120     0.6430 C.2   1 <1>   0.6980 
 20 C      -10.7570     0.1360     1.4290 C.2   1 <1>   0.6850 
 21 C       -9.1860    -1.8240     1.4060 C.3   1 <1>   0.0500 
 22 O      -10.3880     3.4710     0.4490 O.2   1 <1>  -0.5760 
 23 N      -11.0040     1.4540     1.1710 N.am  1 <1>  -0.4960 
 24 O      -11.6440    -0.5330     1.9040 O.2   1 <1>  -0.5760 
 25 H       -2.1020    -2.6120    -0.6550 H     1 <1>   0.1410 
 26 H       -4.9290     0.0260     2.4970 H     1 <1>   0.0700 
 27 H       -4.6410     1.6100     1.8100 H     1 <1>   0.0700 
 28 H       -3.3290     0.7180     2.4880 H     1 <1>   0.0700 
 29 H       -3.0610    -1.7850    -2.7770 H     1 <1>   0.1410 
 30 H       -4.6070     0.1210    -2.7420 H     1 <1>   0.1410 
 31 H       -5.1800     2.7420    -2.2770 H     1 <1>   0.0700 
 32 H       -3.9600     2.8840    -1.0360 H     1 <1>   0.0700 
 33 H       -6.7870    -0.7140     0.3320 H     1 <1>   0.4430 
 34 H       -5.5650     4.8200    -1.0730 H     1 <1>   0.0700 
 35 H       -5.4820     4.0150     0.4560 H     1 <1>   0.0700 
 36 H       -7.8110     4.3730     0.0460 H     1 <1>   0.0700 
 37 H       -7.6860     3.8120    -1.6070 H     1 <1>   0.0700 
 38 H       -8.4060    -1.8950     2.1430 H     1 <1>   0.0700 
 39 H       -8.8660    -2.3010     0.4970 H     1 <1>   0.0700 
 40 H      -10.0510    -2.3480     1.7760 H     1 <1>   0.0700 
 41 H      -11.9330     1.8080     1.3920 H     1 <1>   0.3630 
@<TRIPOS>BOND
  1   1   2  1   
  2   2   3  ar  
  3   2   4  ar  
  4   3   5  ar  
  5   3   6  1   
  6   4   7  ar  
  7   4  25  1   
  8   5   8  1   
  9   5   9  ar  
 10   6  26  1   
 11   6  27  1   
 12   6  28  1   
 13   7   9  ar  
 14   7  29  1   
 15   8  10  ar  
 16   8  11  1   
 17   9  30  1   
 18  10  12  ar  
 19  10  13  ar  
 20  11  14  1   
 21  11  31  1   
 22  11  32  1   
 23  12  15  1   
 24  12  33  1   
 25  13  16  1   
 26  13  17  1   
 27  14  17  1   
 28  14  34  1   
 29  14  35  1   
 30  15  16  2   
 31  15  18  1   
 32  16  19  1   
 33  17  36  1   
 34  17  37  1   
 35  18  20  am  
 36  18  21  1   
 37  19  22  2   
 38  19  23  am  
 39  20  23  am  
 40  20  24  2   
 41  21  38  1   
 42  21  39  1   
 43  21  40  1   
 44  23  41  1   
@<TRIPOS>SUBSTRUCTURE
  1 ****  12 GROUP 4 **** **** 0

# MOE 2024.06 (io_trps.svl 2023.06)
