@<TRIPOS>MOLECULE
1-Thiophen-2-yl-butylamine
24 24 1 0 0 
SMALL
USER_CHARGES


@<TRIPOS>ATOM
  1 S       -0.2110    -0.1950    -0.8910 S.3   1 <1>  -0.0800 
  2 C        1.2200     0.6560    -0.3220 C.2   1 <1>  -0.1400 
  3 C       -1.2580     1.1070    -0.3590 C.2   1 <1>  -0.1100 
  4 C        0.8720     1.8410     0.2220 C.2   1 <1>  -0.1500 
  5 C        2.5390    -0.0560    -0.5330 C.3   1 <1>   0.6030 
  6 C       -0.5360     2.0950     0.2010 C.2   1 <1>  -0.1500 
  7 N        2.4740    -1.2810     0.2630 N.4   1 <1>  -0.8530 
  8 C        3.7410     0.7830    -0.0840 C.3   1 <1>  -0.1600 
  9 C        5.1000     0.0890    -0.2980 C.3   1 <1>  -0.1600 
 10 C        6.2490     1.0280     0.0770 C.3   1 <1>  -0.2400 
 11 H       -2.3160     0.9980    -0.5260 H     1 <1>   0.1500 
 12 H        1.5370     2.5750     0.6470 H     1 <1>   0.1500 
 13 H        2.6440    -0.2990    -1.5790 H     1 <1>   0.0800 
 14 H       -0.9420     3.0080     0.6050 H     1 <1>   0.1500 
 15 H        2.3660    -1.0270     1.2480 H     1 <1>   0.4500 
 16 H        3.3150    -1.8490     0.1370 H     1 <1>   0.4500 
 17 H        1.6410    -1.8080    -0.0190 H     1 <1>   0.4500 
 18 H        3.6310     1.0600     0.9500 H     1 <1>   0.0800 
 19 H        3.7340     1.6950    -0.6580 H     1 <1>   0.0800 
 20 H        5.2120    -0.1940    -1.3330 H     1 <1>   0.0800 
 21 H        5.1810    -0.7980     0.3070 H     1 <1>   0.0800 
 22 H        6.2320     1.9160    -0.5320 H     1 <1>   0.0800 
 23 H        7.1940     0.5360    -0.0770 H     1 <1>   0.0800 
 24 H        6.1860     1.3190     1.1120 H     1 <1>   0.0800 
@<TRIPOS>BOND
  1   1   2  1   
  2   1   3  1   
  3   2   4  2   
  4   2   5  1   
  5   3   6  2   
  6   3  11  1   
  7   4   6  1   
  8   4  12  1   
  9   5   7  1   
 10   5   8  1   
 11   5  13  1   
 12   6  14  1   
 13   7  15  1   
 14   7  16  1   
 15   7  17  1   
 16   8   9  1   
 17   8  18  1   
 18   8  19  1   
 19   9  10  1   
 20   9  20  1   
 21   9  21  1   
 22  10  22  1   
 23  10  23  1   
 24  10  24  1   
@<TRIPOS>SUBSTRUCTURE
  1 ****   2 GROUP 4 **** **** 0

# MOE 2024.06 (io_trps.svl 2023.06)
