@<TRIPOS>MOLECULE
Morpholine-4-carboxylic acid indan-5-yl ester
35 37 1 0 0 
SMALL
USER_CHARGES


@<TRIPOS>ATOM
  1 O       -0.0530    -0.2700    -0.5370 O.2   1 <1>  -0.5700 
  2 C       -0.0020    -1.3300     0.0570 C.2   1 <1>   0.7800 
  3 O        1.1750    -1.8560     0.4270 O.3   1 <1>  -0.2330 
  4 N       -1.1370    -2.0370     0.3670 N.am  1 <1>  -0.6600 
  5 C        2.3990    -1.2730     0.3320 C.ar  1 <1>   0.0830 
  6 C       -1.1380    -3.3580     1.0620 C.3   1 <1>   0.1400 
  7 C       -2.4980    -1.5570    -0.0100 C.3   1 <1>   0.1400 
  8 C        3.4740    -2.0960     0.0250 C.ar  1 <1>  -0.1500 
  9 C        2.6060     0.0870     0.5590 C.ar  1 <1>  -0.1500 
 10 C       -2.0140    -4.3670     0.3000 C.3   1 <1>   0.1200 
 11 C       -3.2920    -2.6750    -0.7060 C.3   1 <1>   0.1200 
 12 C        4.7400    -1.5480    -0.0630 C.ar  1 <1>  -0.1430 
 13 C        3.8800     0.6250     0.4670 C.ar  1 <1>  -0.1500 
 14 O       -3.2900    -3.8410     0.0690 O.3   1 <1>  -0.5600 
 15 C        4.9390    -0.2070     0.1540 C.ar  1 <1>  -0.1430 
 16 C        6.0360    -2.2490    -0.3860 C.3   1 <1>  -0.0170 
 17 C        6.3930     0.1630     0.0030 C.3   1 <1>  -0.0170 
 18 C        7.0150    -1.0890    -0.6400 C.3   1 <1>  -0.1600 
 19 H       -1.5310    -3.2320     2.0560 H     1 <1>   0.0800 
 20 H       -0.1410    -3.7500     1.1470 H     1 <1>   0.0800 
 21 H       -2.4330    -0.7070    -0.6670 H     1 <1>   0.0800 
 22 H       -3.0230    -1.2500     0.8780 H     1 <1>   0.0800 
 23 H        3.3190    -3.1450    -0.1440 H     1 <1>   0.1500 
 24 H        1.7810     0.7280     0.8090 H     1 <1>   0.1500 
 25 H       -2.1300    -5.2680     0.8770 H     1 <1>   0.0800 
 26 H       -1.5670    -4.6180    -0.6460 H     1 <1>   0.0800 
 27 H       -2.8650    -2.8980    -1.6690 H     1 <1>   0.0800 
 28 H       -4.3150    -2.3730    -0.8440 H     1 <1>   0.0800 
 29 H        4.0410     1.6740     0.6370 H     1 <1>   0.1500 
 30 H        5.9390    -2.8820    -1.2500 H     1 <1>   0.0800 
 31 H        6.3480    -2.8310     0.4630 H     1 <1>   0.0800 
 32 H        6.8180     0.3440     0.9740 H     1 <1>   0.0800 
 33 H        6.5170     1.0310    -0.6210 H     1 <1>   0.0800 
 34 H        7.0900    -0.9290    -1.7020 H     1 <1>   0.0800 
 35 H        7.9940    -1.2980    -0.2460 H     1 <1>   0.0800 
@<TRIPOS>BOND
  1   1   2  2   
  2   2   3  1   
  3   2   4  am  
  4   3   5  1   
  5   4   6  1   
  6   4   7  1   
  7   5   8  ar  
  8   5   9  ar  
  9   6  10  1   
 10   6  19  1   
 11   6  20  1   
 12   7  11  1   
 13   7  21  1   
 14   7  22  1   
 15   8  12  ar  
 16   8  23  1   
 17   9  13  ar  
 18   9  24  1   
 19  10  14  1   
 20  10  25  1   
 21  10  26  1   
 22  11  14  1   
 23  11  27  1   
 24  11  28  1   
 25  12  15  ar  
 26  12  16  1   
 27  13  15  ar  
 28  13  29  1   
 29  15  17  1   
 30  16  18  1   
 31  16  30  1   
 32  16  31  1   
 33  17  18  1   
 34  17  32  1   
 35  17  33  1   
 36  18  34  1   
 37  18  35  1   
@<TRIPOS>SUBSTRUCTURE
  1 ****   3 GROUP 4 **** **** 0

# MOE 2024.06 (io_trps.svl 2023.06)
