@<TRIPOS>MOLECULE
Naphthalene-2-sulfonic acid methyl-[2-(4-methyl-piperidin-1-yl)-2-oxo-ethyl]-ami
49 51 1 0 0 
SMALL
USER_CHARGES


@<TRIPOS>ATOM
  1 S       -0.6960    -1.2020     1.2490 S.o2  1 <1>   1.4470 
  2 O        0.2810    -2.0490     1.9010 O.2   1 <1>  -0.6500 
  3 O       -2.0060    -1.0900     1.8520 O.2   1 <1>  -0.6500 
  4 N       -0.9230    -1.8500    -0.3070 N.am  1 <1>  -0.8490 
  5 C       -0.0240     0.4710     1.0330 C.ar  1 <1>  -0.0090 
  6 C        0.3360    -2.3030    -0.9650 C.3   1 <1>   0.2570 
  7 C       -1.9140    -2.9310    -0.3150 C.3   1 <1>   0.1160 
  8 C       -0.2620     1.2310    -0.0850 C.ar  1 <1>  -0.1500 
  9 C        0.7650     1.0360     2.0520 C.ar  1 <1>  -0.1500 
 10 C        1.3020    -1.1820    -1.3930 C.2   1 <1>   0.5690 
 11 C        0.2870     2.5160    -0.2580 C.ar  1 <1>   0.0000 
 12 C        1.2990     2.2880     1.9270 C.ar  1 <1>  -0.1500 
 13 O        1.0270    -0.6130    -2.4260 O.2   1 <1>  -0.5700 
 14 N        2.4100    -0.8200    -0.6580 N.am  1 <1>  -0.6600 
 15 C        1.0830     3.0600     0.7700 C.ar  1 <1>   0.0000 
 16 C        0.0830     3.2720    -1.4290 C.ar  1 <1>  -0.1500 
 17 C        2.9760    -1.5540     0.5120 C.3   1 <1>   0.1400 
 18 C        3.1420     0.4430    -0.9700 C.3   1 <1>   0.1400 
 19 C        1.6320     4.3450     0.5950 C.ar  1 <1>  -0.1500 
 20 C        0.6320     4.5160    -1.5750 C.ar  1 <1>  -0.1500 
 21 C        4.4530    -1.8730     0.2590 C.3   1 <1>  -0.1600 
 22 C        4.6170     0.1370    -1.2430 C.3   1 <1>  -0.1600 
 23 C        1.4140     5.0600    -0.5500 C.ar  1 <1>  -0.1500 
 24 C        5.2620    -0.6080    -0.0650 C.3   1 <1>  -0.0800 
 25 C        6.7190    -0.9620    -0.3820 C.3   1 <1>  -0.2400 
 26 H        0.0720    -2.8110    -1.8750 H     1 <1>   0.0800 
 27 H        0.8330    -3.0270    -0.3500 H     1 <1>   0.0800 
 28 H       -2.8610    -2.5660     0.0460 H     1 <1>   0.0800 
 29 H       -1.5910    -3.7410     0.3190 H     1 <1>   0.0800 
 30 H       -2.0600    -3.2970    -1.3160 H     1 <1>   0.0800 
 31 H       -0.8730     0.8370    -0.8790 H     1 <1>   0.1500 
 32 H        0.9430     0.4550     2.9420 H     1 <1>   0.1500 
 33 H        1.8990     2.7060     2.7160 H     1 <1>   0.1500 
 34 H       -0.5150     2.8450    -2.2150 H     1 <1>   0.1500 
 35 H        2.4550    -2.4730     0.6980 H     1 <1>   0.0800 
 36 H        2.8830    -0.9380     1.3900 H     1 <1>   0.0800 
 37 H        3.0590     1.1110    -0.1310 H     1 <1>   0.0800 
 38 H        2.7130     0.9390    -1.8240 H     1 <1>   0.0800 
 39 H        2.2330     4.7580     1.3860 H     1 <1>   0.1500 
 40 H        0.4720     5.0880    -2.4730 H     1 <1>   0.1500 
 41 H        4.5210    -2.5710    -0.5570 H     1 <1>   0.0800 
 42 H        4.8620    -2.3490     1.1330 H     1 <1>   0.0800 
 43 H        5.1370     1.0620    -1.4190 H     1 <1>   0.0800 
 44 H        4.6840    -0.4540    -2.1400 H     1 <1>   0.0800 
 45 H        1.8370     6.0410    -0.6800 H     1 <1>   0.1500 
 46 H        5.2480     0.0390     0.7970 H     1 <1>   0.0800 
 47 H        6.7740    -1.6070    -1.2420 H     1 <1>   0.0800 
 48 H        7.1710    -1.4650     0.4540 H     1 <1>   0.0800 
 49 H        7.2840    -0.0700    -0.5870 H     1 <1>   0.0800 
@<TRIPOS>BOND
  1   1   2  2   
  2   1   3  2   
  3   1   4  am  
  4   1   5  1   
  5   4   6  1   
  6   4   7  1   
  7   5   8  ar  
  8   5   9  ar  
  9   6  10  1   
 10   6  26  1   
 11   6  27  1   
 12   7  28  1   
 13   7  29  1   
 14   7  30  1   
 15   8  11  ar  
 16   8  31  1   
 17   9  12  ar  
 18   9  32  1   
 19  10  13  2   
 20  10  14  am  
 21  11  15  ar  
 22  11  16  ar  
 23  12  15  ar  
 24  12  33  1   
 25  14  17  1   
 26  14  18  1   
 27  15  19  ar  
 28  16  20  ar  
 29  16  34  1   
 30  17  21  1   
 31  17  35  1   
 32  17  36  1   
 33  18  22  1   
 34  18  37  1   
 35  18  38  1   
 36  19  23  ar  
 37  19  39  1   
 38  20  23  ar  
 39  20  40  1   
 40  21  24  1   
 41  21  41  1   
 42  21  42  1   
 43  22  24  1   
 44  22  43  1   
 45  22  44  1   
 46  23  45  1   
 47  24  25  1   
 48  24  46  1   
 49  25  47  1   
 50  25  48  1   
 51  25  49  1   
@<TRIPOS>SUBSTRUCTURE
  1 ****  14 GROUP 4 **** **** 0

# MOE 2024.06 (io_trps.svl 2023.06)
