@<TRIPOS>MOLECULE
8-(2,5-Dimethoxy-phenyl)-3-ethyl-1,7-dimethyl-1H,8H-imidazo[2,1-f]purine-2,4-dio
50 53 1 0 0 
SMALL
USER_CHARGES


@<TRIPOS>ATOM
  1 O        0.8260    -0.0730    -0.6220 O.2   1 <1>  -0.5740 
  2 C        1.8040     0.6240    -0.4410 C.2   1 <1>   0.6860 
  3 N        1.6570     1.9570    -0.0660 N.am  1 <1>  -0.4260 
  4 N        3.0730     0.0800    -0.6030 N.am  1 <1>  -0.4410 
  5 C        2.7620     2.7590     0.1890 C.2   1 <1>   0.6990 
  6 C        0.2880     2.5410     0.0460 C.3   1 <1>   0.1330 
  7 C        4.1660     0.8830    -0.3440 C.2   1 <1>   0.4210 
  8 C        3.2430    -1.3410    -1.0290 C.3   1 <1>   0.0520 
  9 O        2.6350     3.9230     0.5350 O.2   1 <1>  -0.5740 
 10 C        4.0540     2.1770     0.0400 C.2   1 <1>   0.2710 
 11 C       -0.1330     3.1370    -1.2970 C.3   1 <1>  -0.2470 
 12 N        5.4860     0.5440    -0.4030 N.pl3 1 <1>  -0.7040 
 13 N        5.3620     2.6470     0.2250 N.pl3 1 <1>  -0.6330 
 14 C        6.1730     1.6330    -0.0450 C.cat 1 <1>   1.0690 
 15 C        6.1590     3.6970     0.6360 C.2   1 <1>   0.2220 
 16 N        7.4600     1.9590     0.1290 N.pl3 1 <1>  -0.5550 
 17 C        7.4410     3.2750     0.5830 C.2   1 <1>   0.1580 
 18 C        8.5600     1.0850    -0.0460 C.ar  1 <1>   0.3050 
 19 C        8.7060     4.0280     0.9570 C.3   1 <1>  -0.1090 
 20 C        8.6230    -0.1510     0.6120 C.ar  1 <1>   0.0750 
 21 C        9.5900     1.4510    -0.8970 C.ar  1 <1>  -0.1570 
 22 O        7.5790    -0.5060     1.4200 O.3   1 <1>  -0.3680 
 23 C        9.7240    -0.9800     0.4200 C.ar  1 <1>  -0.1570 
 24 C       10.6840     0.6280    -1.0880 C.ar  1 <1>   0.0750 
 25 C        7.7420    -1.5070     2.4060 C.3   1 <1>   0.0320 
 26 C       10.7500    -0.5920    -0.4240 C.ar  1 <1>  -0.1570 
 27 O       11.6390     1.0840    -1.9350 O.3   1 <1>  -0.3680 
 28 C       12.8040     0.3310    -2.1960 C.3   1 <1>   0.0320 
 29 H        0.2720     3.3060     0.8040 H     1 <1>   0.0720 
 30 H       -0.4160     1.7810     0.3420 H     1 <1>   0.0720 
 31 H        2.3910    -1.6670    -1.6010 H     1 <1>   0.0720 
 32 H        3.3340    -1.9710    -0.1610 H     1 <1>   0.0720 
 33 H        4.1180    -1.4490    -1.6450 H     1 <1>   0.0720 
 34 H        0.5380     3.9260    -1.5880 H     1 <1>   0.0720 
 35 H       -1.1210     3.5510    -1.2110 H     1 <1>   0.0720 
 36 H       -0.1520     2.3760    -2.0570 H     1 <1>   0.0720 
 37 H        5.9220    -0.3670    -0.5330 H     1 <1>   0.4450 
 38 H        5.7510     4.6500     0.9400 H     1 <1>   0.1430 
 39 H        9.2680     3.4690     1.6840 H     1 <1>   0.0720 
 40 H        8.4610     4.9860     1.3780 H     1 <1>   0.0720 
 41 H        9.3210     4.1870     0.0900 H     1 <1>   0.0720 
 42 H        9.5540     2.3830    -1.4280 H     1 <1>   0.1430 
 43 H        9.8060    -1.9330     0.9100 H     1 <1>   0.1430 
 44 H        6.8660    -1.5140     3.0290 H     1 <1>   0.0720 
 45 H        8.6080    -1.2760     3.0020 H     1 <1>   0.0720 
 46 H        7.8530    -2.4630     1.9260 H     1 <1>   0.0720 
 47 H       11.5900    -1.2510    -0.5530 H     1 <1>   0.1430 
 48 H       13.4130     0.8860    -2.8860 H     1 <1>   0.0720 
 49 H       12.5220    -0.6100    -2.6340 H     1 <1>   0.0720 
 50 H       13.3390     0.1840    -1.2740 H     1 <1>   0.0720 
@<TRIPOS>BOND
  1   1   2  2   
  2   2   3  am  
  3   2   4  am  
  4   3   5  am  
  5   3   6  1   
  6   4   7  1   
  7   4   8  1   
  8   5   9  2   
  9   5  10  1   
 10   6  11  1   
 11   6  29  1   
 12   6  30  1   
 13   7  10  2   
 14   7  12  1   
 15   8  31  1   
 16   8  32  1   
 17   8  33  1   
 18  10  13  1   
 19  11  34  1   
 20  11  35  1   
 21  11  36  1   
 22  12  14  ar  
 23  12  37  1   
 24  13  14  ar  
 25  13  15  1   
 26  14  16  ar  
 27  15  17  2   
 28  15  38  1   
 29  16  17  1   
 30  16  18  1   
 31  17  19  1   
 32  18  20  ar  
 33  18  21  ar  
 34  19  39  1   
 35  19  40  1   
 36  19  41  1   
 37  20  22  1   
 38  20  23  ar  
 39  21  24  ar  
 40  21  42  1   
 41  22  25  1   
 42  23  26  ar  
 43  23  43  1   
 44  24  26  ar  
 45  24  27  1   
 46  25  44  1   
 47  25  45  1   
 48  25  46  1   
 49  26  47  1   
 50  27  28  1   
 51  28  48  1   
 52  28  49  1   
 53  28  50  1   
@<TRIPOS>SUBSTRUCTURE
  1 ****  14 GROUP 4 **** **** 0

# MOE 2024.06 (io_trps.svl 2023.06)
