@<TRIPOS>MOLECULE
3,7-Diacetyl-1-sec-butyl-5-methyl-3,7-diaza-bicyclo[3.3.1]nonan-9-one
47 48 1 0 0 
SMALL
USER_CHARGES


@<TRIPOS>ATOM
  1 O        0.3180    -1.3380    -1.4260 O.2   1 <1>  -0.5700 
  2 C        0.4350    -2.4420    -0.9730 C.2   1 <1>   0.4480 
  3 C        1.2720    -2.7680     0.2650 C.3   1 <1>   0.0610 
  4 C       -0.1990    -3.6560    -1.6400 C.3   1 <1>   0.0610 
  5 C        1.8510    -1.4710     0.9450 C.3   1 <1>  -0.0800 
  6 C        2.4300    -3.6510    -0.2660 C.3   1 <1>   0.1400 
  7 C        0.3840    -3.5510     1.2700 C.3   1 <1>   0.1400 
  8 C        0.9500    -4.5680    -2.1220 C.3   1 <1>   0.1400 
  9 C       -1.1080    -4.3400    -0.6020 C.3   1 <1>   0.1400 
 10 C       -1.0650    -3.2720    -2.8620 C.3   1 <1>  -0.2400 
 11 C        2.9350    -1.7510     2.0200 C.3   1 <1>  -0.1600 
 12 C        0.7530    -0.5580     1.5440 C.3   1 <1>  -0.2400 
 13 N        1.9750    -4.8400    -1.0610 N.am  1 <1>  -0.6600 
 14 N       -0.3730    -4.6870     0.6510 N.am  1 <1>  -0.6600 
 15 C        3.5380    -0.4840     2.6440 C.3   1 <1>  -0.2400 
 16 C        2.4440    -6.0940    -0.7500 C.2   1 <1>   0.5690 
 17 C       -0.3410    -5.9840     1.1010 C.2   1 <1>   0.5690 
 18 O        3.2350    -6.2780     0.1440 O.2   1 <1>  -0.5700 
 19 C        1.9870    -7.3110    -1.5220 C.3   1 <1>  -0.1790 
 20 O       -0.9170    -6.8740     0.5220 O.2   1 <1>  -0.5700 
 21 C        0.4230    -6.3560     2.3500 C.3   1 <1>  -0.1790 
 22 H        2.3310    -0.9020     0.1650 H     1 <1>   0.0800 
 23 H        3.0210    -3.9910     0.5640 H     1 <1>   0.0800 
 24 H        3.0690    -3.0550    -0.8940 H     1 <1>   0.0800 
 25 H        1.0030    -3.9050     2.0730 H     1 <1>   0.0800 
 26 H       -0.3470    -2.8900     1.6980 H     1 <1>   0.0800 
 27 H        0.5260    -5.4850    -2.4880 H     1 <1>   0.0800 
 28 H        1.4520    -4.0900    -2.9460 H     1 <1>   0.0800 
 29 H       -1.5430    -5.2220    -1.0400 H     1 <1>   0.0800 
 30 H       -1.9170    -3.6790    -0.3440 H     1 <1>   0.0800 
 31 H       -0.4700    -2.7640    -3.6010 H     1 <1>   0.0800 
 32 H       -1.8580    -2.6060    -2.5650 H     1 <1>   0.0800 
 33 H       -1.5020    -4.1450    -3.3130 H     1 <1>   0.0800 
 34 H        3.7570    -2.2870     1.5820 H     1 <1>   0.0800 
 35 H        2.5310    -2.3610     2.8090 H     1 <1>   0.0800 
 36 H        0.4110    -0.9290     2.4930 H     1 <1>   0.0800 
 37 H       -0.0940    -0.4670     0.8890 H     1 <1>   0.0800 
 38 H        1.1370     0.4350     1.6920 H     1 <1>   0.0800 
 39 H        3.8880     0.1850     1.8770 H     1 <1>   0.0800 
 40 H        4.3720    -0.7480     3.2690 H     1 <1>   0.0800 
 41 H        2.8180     0.0310     3.2550 H     1 <1>   0.0800 
 42 H        2.5160    -8.1790    -1.1730 H     1 <1>   0.0800 
 43 H        0.9370    -7.4680    -1.3660 H     1 <1>   0.0800 
 44 H        2.1900    -7.1820    -2.5670 H     1 <1>   0.0800 
 45 H        0.0640    -5.7850     3.1850 H     1 <1>   0.0800 
 46 H        0.2840    -7.4000     2.5620 H     1 <1>   0.0800 
 47 H        1.4710    -6.1760     2.2040 H     1 <1>   0.0800 
@<TRIPOS>BOND
  1   1   2  2   
  2   2   3  1   
  3   2   4  1   
  4   3   5  1   
  5   3   6  1   
  6   3   7  1   
  7   4   8  1   
  8   4   9  1   
  9   4  10  1   
 10   5  11  1   
 11   5  12  1   
 12   5  22  1   
 13   6  13  1   
 14   6  23  1   
 15   6  24  1   
 16   7  14  1   
 17   7  25  1   
 18   7  26  1   
 19   8  13  1   
 20   8  27  1   
 21   8  28  1   
 22   9  14  1   
 23   9  29  1   
 24   9  30  1   
 25  10  31  1   
 26  10  32  1   
 27  10  33  1   
 28  11  15  1   
 29  11  34  1   
 30  11  35  1   
 31  12  36  1   
 32  12  37  1   
 33  12  38  1   
 34  13  16  am  
 35  14  17  am  
 36  15  39  1   
 37  15  40  1   
 38  15  41  1   
 39  16  18  2   
 40  16  19  1   
 41  17  20  2   
 42  17  21  1   
 43  19  42  1   
 44  19  43  1   
 45  19  44  1   
 46  21  45  1   
 47  21  46  1   
 48  21  47  1   
@<TRIPOS>SUBSTRUCTURE
  1 ****   3 GROUP 4 **** **** 0

# MOE 2024.06 (io_trps.svl 2023.06)
