@<TRIPOS>MOLECULE
[1,3-Dimethyl-8-(4-methyl-piperidin-1-ylmethyl)-2,6-dioxo-1,2,3,6-tetrahydro-pur
55 57 1 0 0 
SMALL
USER_CHARGES


@<TRIPOS>ATOM
  1 O        0.6760    -0.5140     2.1580 O.2   1 <1>  -0.5700 
  2 C        1.5630     0.3120     2.0290 C.2   1 <1>   0.6900 
  3 N        1.2330     1.6500     1.8480 N.am  1 <1>  -0.4200 
  4 N        2.8890    -0.0820     2.0560 N.am  1 <1>  -0.4230 
  5 C        2.2160     2.5980     1.6410 C.2   1 <1>   0.7150 
  6 C       -0.2070     2.0480     1.8360 C.3   1 <1>   0.0600 
  7 C        3.8790     0.8710     1.8520 C.2   1 <1>   0.2900 
  8 C        3.2840    -1.4990     2.2860 C.3   1 <1>   0.0600 
  9 O        1.9330     3.7650     1.4400 O.2   1 <1>  -0.5700 
 10 C        3.5700     2.1700     1.6570 C.2   1 <1>  -0.2370 
 11 N        5.1990     0.6530     1.8070 N.2   1 <1>  -0.5650 
 12 N        4.7560     2.8180     1.4930 N.pl3 1 <1>   0.0480 
 13 C        5.6930     1.8370     1.5910 C.2   1 <1>   0.0060 
 14 C        4.9470     4.2650     1.2030 C.3   1 <1>   0.1570 
 15 C        7.1960     2.0460     1.4340 C.3   1 <1>   0.5230 
 16 C        5.2900     4.4600    -0.2580 C.2   1 <1>   0.6590 
 17 N        7.7030     0.9250     0.6040 N.4   1 <1>  -0.9590 
 18 O        6.2680     3.9370    -0.7370 O.2   1 <1>  -0.5700 
 19 O        4.4740     5.2260    -0.9610 O.3   1 <1>  -0.4300 
 20 C        9.1380     0.6240     0.8390 C.3   1 <1>   0.3430 
 21 C        7.3760     1.1330    -0.8350 C.3   1 <1>   0.3430 
 22 C        4.6780     5.4840    -2.3310 C.3   1 <1>   0.1200 
 23 C        9.5270    -0.6370     0.0690 C.3   1 <1>  -0.1600 
 24 C        7.7440    -0.1190    -1.6300 C.3   1 <1>  -0.1600 
 25 C        3.5520     6.3930    -2.8110 C.3   1 <1>  -0.2400 
 26 C        9.2160    -0.5080    -1.4300 C.3   1 <1>  -0.0800 
 27 C        9.5330    -1.8160    -2.1620 C.3   1 <1>  -0.2400 
 28 H       -0.7490     1.4930     2.5810 H     1 <1>   0.0800 
 29 H       -0.6280     1.8370     0.8690 H     1 <1>   0.0800 
 30 H       -0.3180     3.0970     2.0480 H     1 <1>   0.0800 
 31 H        2.4500    -2.0780     2.6440 H     1 <1>   0.0800 
 32 H        4.0690    -1.5400     3.0190 H     1 <1>   0.0800 
 33 H        3.6360    -1.9260     1.3650 H     1 <1>   0.0800 
 34 H        5.7490     4.6450     1.8060 H     1 <1>   0.0800 
 35 H        4.0610     4.8190     1.4420 H     1 <1>   0.0800 
 36 H        7.6500     2.0160     2.4100 H     1 <1>   0.0800 
 37 H        7.4230     2.9900     0.9710 H     1 <1>   0.0800 
 38 H        7.1270     0.1250     0.9200 H     1 <1>   0.4500 
 39 H        9.3180     0.4710     1.8910 H     1 <1>   0.0800 
 40 H        9.7440     1.4510     0.5030 H     1 <1>   0.0800 
 41 H        7.9230     1.9810    -1.2170 H     1 <1>   0.0800 
 42 H        6.3230     1.3340    -0.9500 H     1 <1>   0.0800 
 43 H        4.6680     4.5470    -2.8630 H     1 <1>   0.0800 
 44 H        5.6360     5.9610    -2.4530 H     1 <1>   0.0800 
 45 H        9.0040    -1.4810     0.4860 H     1 <1>   0.0800 
 46 H       10.5810    -0.8140     0.2010 H     1 <1>   0.0800 
 47 H        7.5600     0.0670    -2.6730 H     1 <1>   0.0800 
 48 H        7.1000    -0.9270    -1.3290 H     1 <1>   0.0800 
 49 H        2.6000     5.9120    -2.6700 H     1 <1>   0.0800 
 50 H        3.6760     6.6040    -3.8570 H     1 <1>   0.0800 
 51 H        3.5680     7.3230    -2.2710 H     1 <1>   0.0800 
 52 H        9.8380     0.2690    -1.8460 H     1 <1>   0.0800 
 53 H        8.9380    -2.6270    -1.7800 H     1 <1>   0.0800 
 54 H       10.5720    -2.0700    -2.0440 H     1 <1>   0.0800 
 55 H        9.3330    -1.7140    -3.2150 H     1 <1>   0.0800 
@<TRIPOS>BOND
  1   1   2  2   
  2   2   3  am  
  3   2   4  am  
  4   3   5  am  
  5   3   6  1   
  6   4   7  1   
  7   4   8  1   
  8   5   9  2   
  9   5  10  1   
 10   6  28  1   
 11   6  29  1   
 12   6  30  1   
 13   7  10  2   
 14   7  11  1   
 15   8  31  1   
 16   8  32  1   
 17   8  33  1   
 18  10  12  1   
 19  11  13  2   
 20  12  13  1   
 21  12  14  1   
 22  13  15  1   
 23  14  16  1   
 24  14  34  1   
 25  14  35  1   
 26  15  17  1   
 27  15  36  1   
 28  15  37  1   
 29  16  18  2   
 30  16  19  1   
 31  17  20  1   
 32  17  21  1   
 33  17  38  1   
 34  19  22  1   
 35  20  23  1   
 36  20  39  1   
 37  20  40  1   
 38  21  24  1   
 39  21  41  1   
 40  21  42  1   
 41  22  25  1   
 42  22  43  1   
 43  22  44  1   
 44  23  26  1   
 45  23  45  1   
 46  23  46  1   
 47  24  26  1   
 48  24  47  1   
 49  24  48  1   
 50  25  49  1   
 51  25  50  1   
 52  25  51  1   
 53  26  27  1   
 54  26  52  1   
 55  27  53  1   
 56  27  54  1   
 57  27  55  1   
@<TRIPOS>SUBSTRUCTURE
  1 ****  13 GROUP 4 **** **** 0

# MOE 2024.06 (io_trps.svl 2023.06)
