@<TRIPOS>MOLECULE
[8-(3,4-Dimethyl-phenyl)-1,7-dimethyl-2,4-dioxo-1,2,4,8-tetrahydro-imidazo[2,1-f
54 57 1 0 0 
SMALL
USER_CHARGES


@<TRIPOS>ATOM
  1 O        1.2900     0.0520     2.8990 O.2   1 <1>  -0.5740 
  2 C        2.0940     0.7130     2.2760 C.2   1 <1>   0.6870 
  3 N        1.7210     1.9490     1.7670 N.am  1 <1>  -0.4250 
  4 N        3.3780     0.2270     2.0630 N.am  1 <1>  -0.4410 
  5 C        2.6160     2.7360     1.0610 C.2   1 <1>   0.7000 
  6 C        0.2590     2.1950     1.5300 C.3   1 <1>   0.1950 
  7 C        4.2320     0.9730     1.2760 C.2   1 <1>   0.4210 
  8 C        3.7810    -1.1080     2.5970 C.3   1 <1>   0.0530 
  9 O        2.2990     3.8550     0.6910 O.2   1 <1>  -0.5740 
 10 C        3.9020     2.1920     0.7810 C.2   1 <1>   0.2710 
 11 C       -0.1790     1.6110     0.1900 C.2   1 <1>   0.6550 
 12 N        5.4930     0.6450     0.8640 N.pl3 1 <1>  -0.7030 
 13 N        5.0100     2.6300     0.0410 N.pl3 1 <1>  -0.6330 
 14 O        0.6270     1.1790    -0.6020 O.2   1 <1>  -0.5740 
 15 O       -1.4850     1.6080    -0.0410 O.3   1 <1>  -0.4350 
 16 C        5.9180     1.6690     0.1170 C.cat 1 <1>   1.0690 
 17 C        5.5430     3.6220    -0.7610 C.2   1 <1>   0.2230 
 18 C       -2.0530     1.0610    -1.2120 C.3   1 <1>   0.1130 
 19 N        7.0220     1.9680    -0.5750 N.pl3 1 <1>  -0.5550 
 20 C        6.7770     3.2150    -1.1350 C.2   1 <1>   0.1580 
 21 C       -2.2090    -0.4470    -1.0260 C.3   1 <1>  -0.2460 
 22 C        8.1640     1.1620    -0.6820 C.ar  1 <1>   0.3050 
 23 C        7.8050     3.9090    -2.0080 C.3   1 <1>  -0.1090 
 24 C        9.1300     1.1910     0.3110 C.ar  1 <1>  -0.1570 
 25 C        8.3220     0.3120    -1.7630 C.ar  1 <1>  -0.1570 
 26 C       10.2430     0.3690     0.2420 C.ar  1 <1>  -0.1500 
 27 C        9.4300    -0.5100    -1.8400 C.ar  1 <1>  -0.1570 
 28 C       10.3920    -0.4900    -0.8420 C.ar  1 <1>  -0.1500 
 29 C       11.2830     0.4300     1.3530 C.3   1 <1>  -0.1040 
 30 C       11.5970    -1.4120    -0.9640 C.3   1 <1>  -0.1040 
 31 H        0.0550     3.2500     1.5330 H     1 <1>   0.0730 
 32 H       -0.3280     1.7480     2.3130 H     1 <1>   0.0730 
 33 H        3.2180    -1.3420     3.4860 H     1 <1>   0.0730 
 34 H        4.8250    -1.1130     2.8540 H     1 <1>   0.0730 
 35 H        3.5870    -1.8670     1.8590 H     1 <1>   0.0730 
 36 H        6.0240    -0.2070     1.0360 H     1 <1>   0.4450 
 37 H        5.0060     4.5290    -0.9970 H     1 <1>   0.1430 
 38 H       -1.4220     1.2920    -2.0540 H     1 <1>   0.0730 
 39 H       -3.0140     1.5230    -1.3550 H     1 <1>   0.0730 
 40 H       -1.2470    -0.9120    -0.9010 H     1 <1>   0.0730 
 41 H       -2.6770    -0.8700    -1.8960 H     1 <1>   0.0730 
 42 H       -2.8260    -0.6550    -0.1700 H     1 <1>   0.0730 
 43 H        8.0260     3.3070    -2.8720 H     1 <1>   0.0730 
 44 H        8.7150     4.0650    -1.4560 H     1 <1>   0.0730 
 45 H        7.4370     4.8630    -2.3400 H     1 <1>   0.0730 
 46 H        9.0140     1.8620     1.1420 H     1 <1>   0.1430 
 47 H        7.5860     0.2880    -2.5460 H     1 <1>   0.1430 
 48 H        9.5440    -1.1690    -2.6850 H     1 <1>   0.1430 
 49 H       11.0180     1.1580     2.0990 H     1 <1>   0.0730 
 50 H       12.2410     0.7010     0.9470 H     1 <1>   0.0730 
 51 H       11.3680    -0.5290     1.8330 H     1 <1>   0.0730 
 52 H       12.5020    -0.8330    -1.0080 H     1 <1>   0.0730 
 53 H       11.5390    -2.0120    -1.8540 H     1 <1>   0.0730 
 54 H       11.6470    -2.0720    -0.1160 H     1 <1>   0.0730 
@<TRIPOS>BOND
  1   1   2  2   
  2   2   3  am  
  3   2   4  am  
  4   3   5  am  
  5   3   6  1   
  6   4   7  1   
  7   4   8  1   
  8   5   9  2   
  9   5  10  1   
 10   6  11  1   
 11   6  31  1   
 12   6  32  1   
 13   7  10  2   
 14   7  12  1   
 15   8  33  1   
 16   8  34  1   
 17   8  35  1   
 18  10  13  1   
 19  11  14  2   
 20  11  15  1   
 21  12  16  ar  
 22  12  36  1   
 23  13  16  ar  
 24  13  17  1   
 25  15  18  1   
 26  16  19  ar  
 27  17  20  2   
 28  17  37  1   
 29  18  21  1   
 30  18  38  1   
 31  18  39  1   
 32  19  20  1   
 33  19  22  1   
 34  20  23  1   
 35  21  40  1   
 36  21  41  1   
 37  21  42  1   
 38  22  24  ar  
 39  22  25  ar  
 40  23  43  1   
 41  23  44  1   
 42  23  45  1   
 43  24  26  ar  
 44  24  46  1   
 45  25  27  ar  
 46  25  47  1   
 47  26  28  ar  
 48  26  29  1   
 49  27  28  ar  
 50  27  48  1   
 51  28  30  1   
 52  29  49  1   
 53  29  50  1   
 54  29  51  1   
 55  30  52  1   
 56  30  53  1   
 57  30  54  1   
@<TRIPOS>SUBSTRUCTURE
  1 ****  12 GROUP 4 **** **** 0

# MOE 2024.06 (io_trps.svl 2023.06)
