@<TRIPOS>MOLECULE
8-(2-Methoxy-5-methyl-phenyl)-1,6,7-trimethyl-3-(2-oxo-propyl)-1H,8H-imidazo[2,1
54 57 1 0 0 
SMALL
USER_CHARGES


@<TRIPOS>ATOM
  1 O        0.7490    -0.1900     1.9990 O.2   1 <1>  -0.5740 
  2 C        1.8610     0.1690     1.6670 C.2   1 <1>   0.6870 
  3 N        2.0800     1.4920     1.3120 N.am  1 <1>  -0.4250 
  4 N        2.9070    -0.7440     1.6380 N.am  1 <1>  -0.4410 
  5 C        3.3410     1.9440     0.9550 C.2   1 <1>   0.7000 
  6 C        0.9060     2.2920     0.8400 C.3   1 <1>   0.1950 
  7 C        4.1370    -0.3070     1.1870 C.2   1 <1>   0.4210 
  8 C        2.6810    -2.1730     2.0040 C.3   1 <1>   0.0530 
  9 O        3.5280     3.1330     0.7470 O.2   1 <1>  -0.5740 
 10 C        4.3890     0.9830     0.8500 C.2   1 <1>   0.2710 
 11 C        0.6510     2.0400    -0.6460 C.2   1 <1>   0.4430 
 12 N        5.2620    -1.0510     0.9920 N.pl3 1 <1>  -0.7030 
 13 N        5.7280     1.0250     0.4310 N.pl3 1 <1>  -0.6330 
 14 O        1.4040     1.3930    -1.3160 O.2   1 <1>  -0.5740 
 15 C       -0.5990     2.6490    -1.2400 C.3   1 <1>  -0.1860 
 16 C        6.1900    -0.2140     0.5220 C.cat 1 <1>   1.0690 
 17 C        6.7320     1.7790    -0.1370 C.2   1 <1>   0.2350 
 18 N        7.4550    -0.3180     0.1000 N.pl3 1 <1>  -0.5550 
 19 C        7.7890     0.9570    -0.3440 C.2   1 <1>   0.1580 
 20 C        6.5180     3.2520    -0.4270 C.3   1 <1>  -0.1090 
 21 C        8.2000    -1.5190     0.0390 C.ar  1 <1>   0.3050 
 22 C        9.1430     1.2520    -0.9680 C.3   1 <1>  -0.1090 
 23 C        7.7180    -2.6420    -0.6460 C.ar  1 <1>   0.0750 
 24 C        9.4260    -1.5940     0.6850 C.ar  1 <1>  -0.1570 
 25 O        6.4940    -2.5570    -1.2440 O.3   1 <1>  -0.3680 
 26 C        8.4810    -3.8040    -0.6860 C.ar  1 <1>  -0.1570 
 27 C       10.1830    -2.7520     0.6460 C.ar  1 <1>  -0.1500 
 28 C        6.1100    -3.4780    -2.2460 C.3   1 <1>   0.0330 
 29 C        9.7060    -3.8520    -0.0440 C.ar  1 <1>  -0.1570 
 30 C       11.5260    -2.8260     1.3510 C.3   1 <1>  -0.1040 
 31 H        1.0900     3.3400     0.9950 H     1 <1>   0.0730 
 32 H        0.0280     2.0290     1.4020 H     1 <1>   0.0730 
 33 H        1.8590    -2.2580     2.6950 H     1 <1>   0.0730 
 34 H        3.5560    -2.5840     2.4740 H     1 <1>   0.0730 
 35 H        2.4460    -2.7400     1.1190 H     1 <1>   0.0730 
 36 H        5.3850    -2.0620     0.9990 H     1 <1>   0.4450 
 37 H       -1.4700     2.2600    -0.7450 H     1 <1>   0.0730 
 38 H       -0.6590     2.4070    -2.2860 H     1 <1>   0.0730 
 39 H       -0.5760     3.7180    -1.1340 H     1 <1>   0.0730 
 40 H        6.2880     3.7750     0.4840 H     1 <1>   0.0730 
 41 H        5.6960     3.3750    -1.1090 H     1 <1>   0.0730 
 42 H        7.3950     3.6920    -0.8630 H     1 <1>   0.0730 
 43 H        9.3300     0.5700    -1.7790 H     1 <1>   0.0730 
 44 H        9.9240     1.1440    -0.2380 H     1 <1>   0.0730 
 45 H        9.1780     2.2540    -1.3550 H     1 <1>   0.0730 
 46 H        9.7910    -0.7420     1.2290 H     1 <1>   0.1430 
 47 H        8.1460    -4.6840    -1.2030 H     1 <1>   0.1430 
 48 H        5.1870    -3.1380    -2.6820 H     1 <1>   0.0730 
 49 H        5.9650    -4.4460    -1.8010 H     1 <1>   0.0730 
 50 H        6.8750    -3.5150    -3.0020 H     1 <1>   0.0730 
 51 H       10.2890    -4.7570    -0.0800 H     1 <1>   0.1430 
 52 H       11.8970    -1.8430     1.5810 H     1 <1>   0.0730 
 53 H       12.2480    -3.3210     0.7250 H     1 <1>   0.0730 
 54 H       11.4280    -3.3810     2.2670 H     1 <1>   0.0730 
@<TRIPOS>BOND
  1   1   2  2   
  2   2   3  am  
  3   2   4  am  
  4   3   5  am  
  5   3   6  1   
  6   4   7  1   
  7   4   8  1   
  8   5   9  2   
  9   5  10  1   
 10   6  11  1   
 11   6  31  1   
 12   6  32  1   
 13   7  10  2   
 14   7  12  1   
 15   8  33  1   
 16   8  34  1   
 17   8  35  1   
 18  10  13  1   
 19  11  14  2   
 20  11  15  1   
 21  12  16  ar  
 22  12  36  1   
 23  13  16  ar  
 24  13  17  1   
 25  15  37  1   
 26  15  38  1   
 27  15  39  1   
 28  16  18  ar  
 29  17  19  2   
 30  17  20  1   
 31  18  19  1   
 32  18  21  1   
 33  19  22  1   
 34  20  40  1   
 35  20  41  1   
 36  20  42  1   
 37  21  23  ar  
 38  21  24  ar  
 39  22  43  1   
 40  22  44  1   
 41  22  45  1   
 42  23  25  1   
 43  23  26  ar  
 44  24  27  ar  
 45  24  46  1   
 46  25  28  1   
 47  26  29  ar  
 48  26  47  1   
 49  27  29  ar  
 50  27  30  1   
 51  28  48  1   
 52  28  49  1   
 53  28  50  1   
 54  29  51  1   
 55  30  52  1   
 56  30  53  1   
 57  30  54  1   
@<TRIPOS>SUBSTRUCTURE
  1 ****  16 GROUP 4 **** **** 0

# MOE 2024.06 (io_trps.svl 2023.06)
