@<TRIPOS>MOLECULE
N-[1-(3-m-Tolyl-[1,2,4]oxadiazol-5-yl)-ethyl]-isobutyramide
39 40 1 0 0 
SMALL
USER_CHARGES


@<TRIPOS>ATOM
  1 O       -1.1740    -1.0510     0.5930 O.2   1 <1>  -0.5700 
  2 C       -2.1430    -0.6000     0.0340 C.2   1 <1>   0.5690 
  3 N       -3.3880    -1.0610     0.2970 N.am  1 <1>  -0.7300 
  4 C       -1.9650     0.5140    -0.9980 C.3   1 <1>  -0.0190 
  5 C       -3.6910    -2.1940     1.1940 C.3   1 <1>   0.4000 
  6 C       -2.6790     1.8090    -0.5750 C.3   1 <1>  -0.2400 
  7 C       -2.4360     0.0800    -2.3960 C.3   1 <1>  -0.2400 
  8 C       -4.4070    -3.3030     0.4170 C.2   1 <1>   0.2980 
  9 C       -4.5180    -1.6490     2.3600 C.3   1 <1>  -0.2400 
 10 O       -3.6750    -4.0910    -0.3260 O.3   1 <1>  -0.0190 
 11 N       -5.6560    -3.5490     0.3970 N.2   1 <1>  -0.5650 
 12 N       -4.5270    -4.9080    -0.8600 N.2   1 <1>  -0.4100 
 13 C       -5.7000    -4.5930    -0.4370 C.2   1 <1>   0.4620 
 14 C       -6.9400    -5.2620    -0.7970 C.ar  1 <1>   0.0540 
 15 C       -8.1700    -4.8700    -0.2640 C.ar  1 <1>  -0.1500 
 16 C       -6.9500    -6.3300    -1.6970 C.ar  1 <1>  -0.1500 
 17 C       -9.3520    -5.5040    -0.6050 C.ar  1 <1>  -0.1440 
 18 C       -8.1240    -6.9700    -2.0470 C.ar  1 <1>  -0.1500 
 19 C       -9.3260    -6.5580    -1.5020 C.ar  1 <1>  -0.1500 
 20 C      -10.6710    -5.0490    -0.0060 C.3   1 <1>  -0.0970 
 21 H       -4.1870    -0.6870    -0.2130 H     1 <1>   0.3700 
 22 H       -0.9100     0.7240    -1.0570 H     1 <1>   0.0800 
 23 H       -2.7750    -2.6030     1.5870 H     1 <1>   0.0800 
 24 H       -3.7430     1.6650    -0.5280 H     1 <1>   0.0800 
 25 H       -2.4690     2.5970    -1.2760 H     1 <1>   0.0800 
 26 H       -2.3310     2.1180     0.3960 H     1 <1>   0.0800 
 27 H       -3.4940    -0.1130    -2.4040 H     1 <1>   0.0800 
 28 H       -1.9230    -0.8180    -2.6930 H     1 <1>   0.0800 
 29 H       -2.2210     0.8480    -3.1180 H     1 <1>   0.0800 
 30 H       -5.4390    -1.2230     2.0050 H     1 <1>   0.0800 
 31 H       -3.9570    -0.9020     2.8910 H     1 <1>   0.0800 
 32 H       -4.7520    -2.4470     3.0410 H     1 <1>   0.0800 
 33 H       -8.1970    -4.0500     0.4320 H     1 <1>   0.1500 
 34 H       -6.0230    -6.6640    -2.1300 H     1 <1>   0.1500 
 35 H       -8.1030    -7.7900    -2.7440 H     1 <1>   0.1500 
 36 H      -10.2370    -7.0590    -1.7790 H     1 <1>   0.1500 
 37 H      -10.5100    -4.5660     0.9410 H     1 <1>   0.0800 
 38 H      -11.3220    -5.8910     0.1490 H     1 <1>   0.0800 
 39 H      -11.1520    -4.3550    -0.6720 H     1 <1>   0.0800 
@<TRIPOS>BOND
  1   1   2  2   
  2   2   3  am  
  3   2   4  1   
  4   3   5  1   
  5   3  21  1   
  6   4   6  1   
  7   4   7  1   
  8   4  22  1   
  9   5   8  1   
 10   5   9  1   
 11   5  23  1   
 12   6  24  1   
 13   6  25  1   
 14   6  26  1   
 15   7  27  1   
 16   7  28  1   
 17   7  29  1   
 18   8  10  1   
 19   8  11  2   
 20   9  30  1   
 21   9  31  1   
 22   9  32  1   
 23  10  12  1   
 24  11  13  1   
 25  12  13  2   
 26  13  14  1   
 27  14  15  ar  
 28  14  16  ar  
 29  15  17  ar  
 30  15  33  1   
 31  16  18  ar  
 32  16  34  1   
 33  17  19  ar  
 34  17  20  1   
 35  18  19  ar  
 36  18  35  1   
 37  19  36  1   
 38  20  37  1   
 39  20  38  1   
 40  20  39  1   
@<TRIPOS>SUBSTRUCTURE
  1 ****  11 GROUP 4 **** **** 0

# MOE 2024.06 (io_trps.svl 2023.06)
