@<TRIPOS>MOLECULE
2-(4-Isopropyl-benzylamino)-4,5,6,7-tetrahydro-cyclopenta[d][1,2,4]triazolo[1,5-
45 48 1 0 0 
SMALL
USER_CHARGES


@<TRIPOS>ATOM
  1 O       -0.1950    -0.5490    -0.9910 O.2   1 <1>  -0.5700 
  2 C       -0.5510    -1.6540    -0.5980 C.2   1 <1>   0.5650 
  3 N       -1.8740    -2.1380    -0.7530 N.pl3 1 <1>   0.5610 
  4 C        0.3580    -2.5400     0.0600 C.2   1 <1>  -0.1240 
  5 N       -2.9880    -1.5970    -1.3080 N.2   1 <1>  -0.7070 
  6 C       -2.2270    -3.3660    -0.2800 C.2   1 <1>   0.2700 
  7 C       -0.0200    -3.7480     0.5110 C.2   1 <1>  -0.0380 
  8 C        1.8160    -2.2730     0.3480 C.3   1 <1>  -0.0220 
  9 C       -3.8540    -2.5290    -1.1280 C.2   1 <1>   0.5990 
 10 N       -3.4600    -3.6360    -0.4940 N.2   1 <1>  -0.5650 
 11 N       -1.3100    -4.1920     0.3590 N.pl3 1 <1>  -0.5840 
 12 C        1.0920    -4.5130     1.1740 C.3   1 <1>  -0.0220 
 13 C        2.3170    -3.5970     0.9650 C.3   1 <1>  -0.1600 
 14 N       -5.1490    -2.4480    -1.5470 N.pl3 1 <1>  -0.8520 
 15 C       -5.8210    -1.1570    -1.3300 C.3   1 <1>   0.3530 
 16 C       -7.1660    -1.4360    -0.6860 C.ar  1 <1>  -0.1430 
 17 C       -8.2810    -1.6880    -1.4700 C.ar  1 <1>  -0.1500 
 18 C       -7.2940    -1.4500     0.6940 C.ar  1 <1>  -0.1500 
 19 C       -9.5070    -1.9430    -0.8810 C.ar  1 <1>  -0.1500 
 20 C       -8.5210    -1.7050     1.2810 C.ar  1 <1>  -0.1500 
 21 C       -9.6400    -1.9530     0.5000 C.ar  1 <1>  -0.1430 
 22 C      -10.9860    -2.2310     1.1660 C.3   1 <1>   0.0630 
 23 C      -11.4940    -3.6320     0.8100 C.3   1 <1>  -0.2400 
 24 C      -12.0170    -1.1650     0.7810 C.3   1 <1>  -0.2400 
 25 H        1.9100    -1.4590     1.0460 H     1 <1>   0.0800 
 26 H        2.3480    -2.0350    -0.5570 H     1 <1>   0.0800 
 27 H       -1.6410    -5.1080     0.6840 H     1 <1>   0.4000 
 28 H        1.2370    -5.4710     0.7050 H     1 <1>   0.0800 
 29 H        0.8800    -4.6440     2.2210 H     1 <1>   0.0800 
 30 H        2.8250    -3.4170     1.8970 H     1 <1>   0.0800 
 31 H        3.0050    -4.0700     0.2850 H     1 <1>   0.0800 
 32 H       -5.6790    -3.1810    -1.0740 H     1 <1>   0.4000 
 33 H       -5.9520    -0.6620    -2.2770 H     1 <1>   0.0800 
 34 H       -5.2360    -0.5150    -0.6920 H     1 <1>   0.0800 
 35 H       -8.1960    -1.6910    -2.5420 H     1 <1>   0.1500 
 36 H       -6.4360    -1.2640     1.3170 H     1 <1>   0.1500 
 37 H      -10.3590    -2.1350    -1.5070 H     1 <1>   0.1500 
 38 H       -8.5970    -1.7090     2.3540 H     1 <1>   0.1500 
 39 H      -10.8580    -2.1910     2.2340 H     1 <1>   0.0800 
 40 H      -11.6870    -3.7140    -0.2440 H     1 <1>   0.0800 
 41 H      -12.4020    -3.8470     1.3440 H     1 <1>   0.0800 
 42 H      -10.7560    -4.3660     1.0810 H     1 <1>   0.0800 
 43 H      -12.2230    -1.1930    -0.2730 H     1 <1>   0.0800 
 44 H      -11.6410    -0.1880     1.0310 H     1 <1>   0.0800 
 45 H      -12.9360    -1.3250     1.3160 H     1 <1>   0.0800 
@<TRIPOS>BOND
  1   1   2  2   
  2   2   3  1   
  3   2   4  1   
  4   3   5  1   
  5   3   6  1   
  6   4   7  2   
  7   4   8  1   
  8   5   9  2   
  9   6  10  2   
 10   6  11  1   
 11   7  11  1   
 12   7  12  1   
 13   8  13  1   
 14   8  25  1   
 15   8  26  1   
 16   9  10  1   
 17   9  14  1   
 18  11  27  1   
 19  12  13  1   
 20  12  28  1   
 21  12  29  1   
 22  13  30  1   
 23  13  31  1   
 24  14  15  1   
 25  14  32  1   
 26  15  16  1   
 27  15  33  1   
 28  15  34  1   
 29  16  17  ar  
 30  16  18  ar  
 31  17  19  ar  
 32  17  35  1   
 33  18  20  ar  
 34  18  36  1   
 35  19  21  ar  
 36  19  37  1   
 37  20  21  ar  
 38  20  38  1   
 39  21  22  1   
 40  22  23  1   
 41  22  24  1   
 42  22  39  1   
 43  23  40  1   
 44  23  41  1   
 45  23  42  1   
 46  24  43  1   
 47  24  44  1   
 48  24  45  1   
@<TRIPOS>SUBSTRUCTURE
  1 ****   9 GROUP 4 **** **** 0

# MOE 2024.06 (io_trps.svl 2023.06)
