@<TRIPOS>MOLECULE
8-(4-Ethyl-piperazin-1-ylmethyl)-7-(2-fluoro-benzyl)-1,3-dimethyl-3,7-dihydro-pu
59 62 1 0 0 
SMALL
USER_CHARGES


@<TRIPOS>ATOM
  1 F        0.6760    -1.9810     0.5040 F     1 <1>  -0.1900 
  2 C       -0.4160    -1.4390     0.0330 C.ar  1 <1>   0.1900 
  3 C       -1.6470    -1.9420     0.4270 C.ar  1 <1>  -0.1440 
  4 C       -0.2860    -0.3820    -0.8470 C.ar  1 <1>  -0.1500 
  5 C       -2.7860    -1.3340    -0.0870 C.ar  1 <1>  -0.1500 
  6 C       -1.7520    -3.1110     1.3930 C.3   1 <1>   0.4980 
  7 C       -1.4320     0.2030    -1.3550 C.ar  1 <1>  -0.1500 
  8 C       -2.6760    -0.2730    -0.9730 C.ar  1 <1>  -0.1500 
  9 N       -1.9560    -4.3710     0.6150 N.pl3 1 <1>  -0.7640 
 10 C       -3.2160    -4.9200     0.3380 C.2   1 <1>   0.2770 
 11 C       -1.0550    -5.1270    -0.0050 C.cat 1 <1>   0.6560 
 12 C       -4.5700    -4.6030     0.6950 C.2   1 <1>   0.7030 
 13 C       -2.9990    -5.9990    -0.4530 C.2   1 <1>   0.4260 
 14 N       -1.6630    -6.1160    -0.6520 N.pl3 1 <1>  -0.7000 
 15 C        0.4770    -4.9530    -0.0260 C.3   1 <1>   0.2540 
 16 O       -4.8210    -3.6680     1.4350 O.2   1 <1>  -0.5700 
 17 N       -5.5900    -5.3940     0.1840 N.am  1 <1>  -0.4200 
 18 N       -4.0040    -6.8110    -0.9440 N.am  1 <1>  -0.4360 
 19 N        1.2400    -6.2360    -0.1540 N.3   1 <1>  -0.8100 
 20 C       -5.3150    -6.4940    -0.6190 C.2   1 <1>   0.6900 
 21 C       -7.0170    -5.0910     0.5240 C.3   1 <1>   0.0600 
 22 C       -3.7030    -7.9620    -1.8460 C.3   1 <1>   0.0600 
 23 C        2.6390    -5.9590    -0.5900 C.3   1 <1>   0.1100 
 24 C        1.2580    -7.0000     1.1250 C.3   1 <1>   0.1100 
 25 O       -6.2240    -7.1810    -1.0380 O.2   1 <1>  -0.5700 
 26 C        3.5490    -7.2150    -0.6090 C.3   1 <1>   0.3430 
 27 C        2.0830    -8.3120     1.0440 C.3   1 <1>   0.3430 
 28 N        2.7820    -8.4600    -0.2780 N.4   1 <1>  -0.9590 
 29 C        3.6340    -9.6750    -0.3740 C.3   1 <1>   0.3430 
 30 C        2.7570   -10.9210    -0.3980 C.3   1 <1>  -0.2400 
 31 H        0.6880    -0.0210    -1.1270 H     1 <1>   0.1500 
 32 H       -3.7690    -1.6690     0.1960 H     1 <1>   0.1500 
 33 H       -2.5730    -2.9490     2.0710 H     1 <1>   0.0800 
 34 H       -0.8610    -3.1870     1.9930 H     1 <1>   0.0800 
 35 H       -1.3580     1.0290    -2.0430 H     1 <1>   0.1500 
 36 H       -3.5650     0.1910    -1.3670 H     1 <1>   0.1500 
 37 H       -1.1780    -6.8180    -1.2120 H     1 <1>   0.4500 
 38 H        0.7910    -4.4410     0.8660 H     1 <1>   0.0800 
 39 H        0.7070    -4.3200    -0.8660 H     1 <1>   0.0800 
 40 H       -7.1330    -4.0730     0.8520 H     1 <1>   0.0800 
 41 H       -7.3490    -5.7510     1.3060 H     1 <1>   0.0800 
 42 H       -7.6420    -5.2370    -0.3410 H     1 <1>   0.0800 
 43 H       -2.7980    -8.4550    -1.5400 H     1 <1>   0.0800 
 44 H       -3.5990    -7.6120    -2.8590 H     1 <1>   0.0800 
 45 H       -4.5010    -8.6860    -1.8170 H     1 <1>   0.0800 
 46 H        3.0890    -5.2260     0.0600 H     1 <1>   0.0800 
 47 H        2.6250    -5.5360    -1.5810 H     1 <1>   0.0800 
 48 H        0.2520    -7.2490     1.4180 H     1 <1>   0.0800 
 49 H        1.6750    -6.3880     1.9090 H     1 <1>   0.0800 
 50 H        4.3470    -7.0800     0.1030 H     1 <1>   0.0800 
 51 H        3.9990    -7.3070    -1.5840 H     1 <1>   0.0800 
 52 H        1.4220    -9.1480     1.2010 H     1 <1>   0.0800 
 53 H        2.8070    -8.3210     1.8430 H     1 <1>   0.0800 
 54 H        2.0380    -8.5150    -0.9860 H     1 <1>   0.4500 
 55 H        4.3180    -9.7190     0.4590 H     1 <1>   0.0800 
 56 H        4.2130    -9.6410    -1.2830 H     1 <1>   0.0800 
 57 H        2.2350   -11.0560     0.5320 H     1 <1>   0.0800 
 58 H        3.3820   -11.7850    -0.5450 H     1 <1>   0.0800 
 59 H        2.0550   -10.8820    -1.2110 H     1 <1>   0.0800 
@<TRIPOS>BOND
  1   1   2  1   
  2   2   3  ar  
  3   2   4  ar  
  4   3   5  ar  
  5   3   6  1   
  6   4   7  ar  
  7   4  31  1   
  8   5   8  ar  
  9   5  32  1   
 10   6   9  1   
 11   6  33  1   
 12   6  34  1   
 13   7   8  ar  
 14   7  35  1   
 15   8  36  1   
 16   9  10  1   
 17   9  11  ar  
 18  10  12  1   
 19  10  13  2   
 20  11  14  ar  
 21  11  15  1   
 22  12  16  2   
 23  12  17  am  
 24  13  14  1   
 25  13  18  1   
 26  14  37  1   
 27  15  19  1   
 28  15  38  1   
 29  15  39  1   
 30  17  20  am  
 31  17  21  1   
 32  18  20  am  
 33  18  22  1   
 34  19  23  1   
 35  19  24  1   
 36  20  25  2   
 37  21  40  1   
 38  21  41  1   
 39  21  42  1   
 40  22  43  1   
 41  22  44  1   
 42  22  45  1   
 43  23  26  1   
 44  23  46  1   
 45  23  47  1   
 46  24  27  1   
 47  24  48  1   
 48  24  49  1   
 49  26  28  1   
 50  26  50  1   
 51  26  51  1   
 52  27  28  1   
 53  27  52  1   
 54  27  53  1   
 55  28  29  1   
 56  28  54  1   
 57  29  30  1   
 58  29  55  1   
 59  29  56  1   
 60  30  57  1   
 61  30  58  1   
 62  30  59  1   
@<TRIPOS>SUBSTRUCTURE
  1 ****  11 GROUP 4 **** **** 0

# MOE 2024.06 (io_trps.svl 2023.06)
