@<TRIPOS>MOLECULE
4-(2,5-Dimethyl-phenoxy)-N-(5-propyl-[1,3,4]thiadiazol-2-yl)-butyramide
46 47 1 0 0 
SMALL
USER_CHARGES


@<TRIPOS>ATOM
  1 S       -0.2850    -1.1930    -0.1150 S.3   1 <1>  -0.0800 
  2 C        0.9150     0.0640    -0.1360 C.2   1 <1>   0.4420 
  3 C        1.0130    -2.3360    -0.0740 C.2   1 <1>   0.1980 
  4 N        2.1050    -0.4100    -0.1140 N.2   1 <1>  -0.3380 
  5 N        0.5890     1.4040    -0.1740 N.am  1 <1>  -0.4940 
  6 N        2.1550    -1.7750    -0.0780 N.2   1 <1>  -0.3380 
  7 C        0.6450    -3.8110    -0.0400 C.3   1 <1>   0.0200 
  8 C       -0.5480     2.1500    -0.1960 C.2   1 <1>   0.5690 
  9 C        1.8740    -4.7310    -0.0040 C.3   1 <1>  -0.1600 
 10 O       -0.4360     3.3470    -0.2350 O.2   1 <1>  -0.5700 
 11 C       -1.9390     1.5240    -0.1730 C.3   1 <1>  -0.0990 
 12 C        1.4740    -6.2100     0.0300 C.3   1 <1>  -0.2400 
 13 C       -3.0950     2.5420    -0.1890 C.3   1 <1>  -0.1600 
 14 C       -4.4550     1.8430    -0.1630 C.3   1 <1>   0.1200 
 15 O       -5.4560     2.8310    -0.1770 O.3   1 <1>  -0.3630 
 16 C       -6.7780     2.5110    -0.1570 C.ar  1 <1>   0.0820 
 17 C       -7.6940     3.5600    -0.1680 C.ar  1 <1>  -0.1440 
 18 C       -7.2390     1.1960    -0.1270 C.ar  1 <1>  -0.1500 
 19 C       -9.0510     3.2830    -0.1470 C.ar  1 <1>  -0.1500 
 20 C       -7.2160     5.0050    -0.2010 C.3   1 <1>  -0.0970 
 21 C       -8.5970     0.9250    -0.1090 C.ar  1 <1>  -0.1440 
 22 C       -9.5000     1.9740    -0.1170 C.ar  1 <1>  -0.1500 
 23 C       -9.0950    -0.5090    -0.0750 C.3   1 <1>  -0.0970 
 24 H        1.4140     2.0010    -0.1900 H     1 <1>   0.3700 
 25 H        0.0570    -4.0360    -0.9120 H     1 <1>   0.0800 
 26 H        0.0390    -3.9920     0.8290 H     1 <1>   0.0800 
 27 H        2.4660    -4.5010     0.8670 H     1 <1>   0.0800 
 28 H        2.4840    -4.5460    -0.8730 H     1 <1>   0.0800 
 29 H       -2.0230     0.9260     0.7160 H     1 <1>   0.0800 
 30 H       -2.0340     0.8860    -1.0320 H     1 <1>   0.0800 
 31 H        0.8860    -6.4240     0.9050 H     1 <1>   0.0800 
 32 H        2.3560    -6.8260     0.0550 H     1 <1>   0.0800 
 33 H        0.9040    -6.4690    -0.8450 H     1 <1>   0.0800 
 34 H       -3.0270     3.1470    -1.0770 H     1 <1>   0.0800 
 35 H       -3.0140     3.1880     0.6700 H     1 <1>   0.0800 
 36 H       -4.5680     1.2610     0.7350 H     1 <1>   0.0800 
 37 H       -4.5820     1.2230    -1.0330 H     1 <1>   0.0800 
 38 H       -6.5540     0.3720    -0.1170 H     1 <1>   0.1500 
 39 H       -9.7670     4.0840    -0.1540 H     1 <1>   0.1500 
 40 H       -6.6250     5.1710    -1.0830 H     1 <1>   0.0800 
 41 H       -6.6090     5.2050     0.6630 H     1 <1>   0.0800 
 42 H       -8.0450     5.6890    -0.2060 H     1 <1>   0.0800 
 43 H      -10.5570     1.7790    -0.1000 H     1 <1>   0.1500 
 44 H       -8.4010    -1.1620    -0.5730 H     1 <1>   0.0800 
 45 H      -10.0470    -0.5870    -0.5690 H     1 <1>   0.0800 
 46 H       -9.2060    -0.8300     0.9450 H     1 <1>   0.0800 
@<TRIPOS>BOND
  1   1   2  1   
  2   1   3  1   
  3   2   4  2   
  4   2   5  1   
  5   3   6  2   
  6   3   7  1   
  7   4   6  1   
  8   5   8  am  
  9   5  24  1   
 10   7   9  1   
 11   7  25  1   
 12   7  26  1   
 13   8  10  2   
 14   8  11  1   
 15   9  12  1   
 16   9  27  1   
 17   9  28  1   
 18  11  13  1   
 19  11  29  1   
 20  11  30  1   
 21  12  31  1   
 22  12  32  1   
 23  12  33  1   
 24  13  14  1   
 25  13  34  1   
 26  13  35  1   
 27  14  15  1   
 28  14  36  1   
 29  14  37  1   
 30  15  16  1   
 31  16  17  ar  
 32  16  18  ar  
 33  17  19  ar  
 34  17  20  1   
 35  18  21  ar  
 36  18  38  1   
 37  19  22  ar  
 38  19  39  1   
 39  20  40  1   
 40  20  41  1   
 41  20  42  1   
 42  21  22  ar  
 43  21  23  1   
 44  22  43  1   
 45  23  44  1   
 46  23  45  1   
 47  23  46  1   
@<TRIPOS>SUBSTRUCTURE
  1 ****  11 GROUP 4 **** **** 0

# MOE 2024.06 (io_trps.svl 2023.06)
