@<TRIPOS>MOLECULE
2-Benzenesulfonyl-N-(5-isopropyl-[1,3,4]thiadiazol-2-yl)-acetamide
36 37 1 0 0 
SMALL
USER_CHARGES


@<TRIPOS>ATOM
  1 S       -0.7030     1.0150    -0.9900 S.o2  1 <1>   1.2040 
  2 O       -2.1170     1.2710    -0.8440 O.2   1 <1>  -0.6500 
  3 O       -0.0180     1.4980    -2.1710 O.2   1 <1>  -0.6500 
  4 C       -0.3700    -0.7480    -0.7520 C.ar  1 <1>  -0.0090 
  5 C        0.1020     1.7800     0.3910 C.3   1 <1>   0.0060 
  6 C       -1.1560    -1.5120     0.1020 C.ar  1 <1>  -0.1500 
  7 C        0.6950    -1.3740    -1.3920 C.ar  1 <1>  -0.1500 
  8 C        1.5480     1.3860     0.4120 C.2   1 <1>   0.5690 
  9 C       -0.8880    -2.8530     0.3180 C.ar  1 <1>  -0.1500 
 10 C        0.9710    -2.7130    -1.1810 C.ar  1 <1>  -0.1500 
 11 O        1.9430     0.8280     1.4010 O.2   1 <1>  -0.5700 
 12 N        2.3460     1.6750    -0.6610 N.am  1 <1>  -0.4940 
 13 C        0.1790    -3.4540    -0.3240 C.ar  1 <1>  -0.1500 
 14 C        3.6920     1.4680    -0.8790 C.2   1 <1>   0.4420 
 15 S        4.7680     0.9490     0.3810 S.3   1 <1>  -0.0800 
 16 N        4.2980     1.6330    -1.9950 N.2   1 <1>  -0.3380 
 17 C        6.0440     0.9950    -0.7900 C.2   1 <1>   0.1980 
 18 N        5.6370     1.3600    -1.9390 N.2   1 <1>  -0.3380 
 19 C        7.4580     0.6140    -0.3640 C.3   1 <1>   0.1000 
 20 C        7.5270    -0.8420     0.1160 C.3   1 <1>  -0.2400 
 21 C        7.9960     1.5640     0.7150 C.3   1 <1>  -0.2400 
 22 H       -0.3600     1.4650     1.3060 H     1 <1>   0.0800 
 23 H        0.0260     2.8470     0.3230 H     1 <1>   0.0800 
 24 H       -1.9940    -1.0580     0.6050 H     1 <1>   0.1500 
 25 H        1.3210    -0.8140    -2.0670 H     1 <1>   0.1500 
 26 H       -1.5090    -3.4280     0.9830 H     1 <1>   0.1500 
 27 H        1.8010    -3.1790    -1.6840 H     1 <1>   0.1500 
 28 H        1.8670     2.0140    -1.5040 H     1 <1>   0.3700 
 29 H        0.3920    -4.4970    -0.1570 H     1 <1>   0.1500 
 30 H        8.0880     0.7080    -1.2330 H     1 <1>   0.0800 
 31 H        6.9400    -0.9800     1.0060 H     1 <1>   0.0800 
 32 H        8.5450    -1.1150     0.3300 H     1 <1>   0.0800 
 33 H        7.1520    -1.4980    -0.6490 H     1 <1>   0.0800 
 34 H        7.4210     1.4800     1.6200 H     1 <1>   0.0800 
 35 H        7.9440     2.5800     0.3670 H     1 <1>   0.0800 
 36 H        9.0220     1.3320     0.9370 H     1 <1>   0.0800 
@<TRIPOS>BOND
  1   1   2  2   
  2   1   3  2   
  3   1   4  1   
  4   1   5  1   
  5   4   6  ar  
  6   4   7  ar  
  7   5   8  1   
  8   5  22  1   
  9   5  23  1   
 10   6   9  ar  
 11   6  24  1   
 12   7  10  ar  
 13   7  25  1   
 14   8  11  2   
 15   8  12  am  
 16   9  13  ar  
 17   9  26  1   
 18  10  13  ar  
 19  10  27  1   
 20  12  14  1   
 21  12  28  1   
 22  13  29  1   
 23  14  15  1   
 24  14  16  2   
 25  15  17  1   
 26  16  18  1   
 27  17  18  2   
 28  17  19  1   
 29  19  20  1   
 30  19  21  1   
 31  19  30  1   
 32  20  31  1   
 33  20  32  1   
 34  20  33  1   
 35  21  34  1   
 36  21  35  1   
 37  21  36  1   
@<TRIPOS>SUBSTRUCTURE
  1 ****  12 GROUP 4 **** **** 0

# MOE 2024.06 (io_trps.svl 2023.06)
