@<TRIPOS>MOLECULE
7-(2-Ethoxy-ethyl)-1,3-dimethyl-8-morpholin-4-yl-3,7-dihydro-purine-2,6-dione
48 50 1 0 0 
SMALL
USER_CHARGES


@<TRIPOS>ATOM
  1 O        1.2840     0.6890     2.1620 O.2   1 <1>  -0.5750 
  2 C        2.1380     1.1870     1.4570 C.2   1 <1>   0.6860 
  3 N        1.8660     2.3560     0.7540 N.am  1 <1>  -0.4260 
  4 N        3.3810     0.5810     1.3460 N.am  1 <1>  -0.4420 
  5 C        2.8010     2.9060    -0.1140 C.2   1 <1>   0.6990 
  6 C        0.5250     3.0020     0.9130 C.3   1 <1>   0.0520 
  7 C        4.3020     1.1450     0.4840 C.2   1 <1>   0.4200 
  8 C        3.7020    -0.6580     2.1160 C.3   1 <1>   0.0520 
  9 O        2.5370     3.9110    -0.7550 O.2   1 <1>  -0.5750 
 10 C        4.0730     2.2580    -0.2380 C.2   1 <1>   0.2700 
 11 N        5.5590     0.7090     0.2170 N.pl3 1 <1>  -0.7040 
 12 N        5.2500     2.5040    -0.9740 N.pl3 1 <1>  -0.7670 
 13 C        6.1390     1.5520    -0.6420 C.cat 1 <1>   1.0690 
 14 C        5.3820     3.7240    -1.8240 C.3   1 <1>   0.3480 
 15 N        7.4190     1.3680    -1.0540 N.pl3 1 <1>  -0.5960 
 16 C        5.6490     4.9720    -0.9600 C.3   1 <1>   0.1120 
 17 C        8.1360     0.0530    -0.9480 C.3   1 <1>   0.1600 
 18 C        8.3560     2.4430    -1.5180 C.3   1 <1>   0.1600 
 19 O        6.5870     4.6730     0.0330 O.3   1 <1>  -0.5650 
 20 C        9.4110     0.1910    -0.1020 C.3   1 <1>   0.1120 
 21 C        9.6270     2.4650    -0.6530 C.3   1 <1>   0.1120 
 22 C        6.8560     5.7290     0.8930 C.3   1 <1>   0.1120 
 23 O       10.2170     1.1990    -0.6270 O.3   1 <1>  -0.5650 
 24 C        7.8990     5.2480     1.8930 C.3   1 <1>  -0.2470 
 25 H        0.1810     2.9020     1.9280 H     1 <1>   0.0720 
 26 H       -0.1830     2.5250     0.2580 H     1 <1>   0.0720 
 27 H        0.5710     4.0510     0.6770 H     1 <1>   0.0720 
 28 H        3.0320    -0.7710     2.9520 H     1 <1>   0.0720 
 29 H        4.7050    -0.6110     2.4990 H     1 <1>   0.0720 
 30 H        3.5990    -1.5180     1.4780 H     1 <1>   0.0720 
 31 H        6.0270    -0.0750     0.6540 H     1 <1>   0.4440 
 32 H        4.4780     3.8750    -2.3880 H     1 <1>   0.0720 
 33 H        6.1690     3.5980    -2.5440 H     1 <1>   0.0720 
 34 H        4.7390     5.2940    -0.4860 H     1 <1>   0.0720 
 35 H        6.0280     5.7740    -1.5700 H     1 <1>   0.0720 
 36 H        8.4170    -0.2720    -1.9360 H     1 <1>   0.0720 
 37 H        7.5090    -0.7120    -0.5280 H     1 <1>   0.0720 
 38 H        7.9170     3.4140    -1.4600 H     1 <1>   0.0720 
 39 H        8.6330     2.2620    -2.5430 H     1 <1>   0.0720 
 40 H        9.9780    -0.7230    -0.1260 H     1 <1>   0.0720 
 41 H        9.1820     0.4300     0.9220 H     1 <1>   0.0720 
 42 H        9.4010     2.7640     0.3560 H     1 <1>   0.0720 
 43 H       10.3450     3.1530    -1.0630 H     1 <1>   0.0720 
 44 H        5.9470     6.0100     1.3990 H     1 <1>   0.0720 
 45 H        7.2330     6.5610     0.3230 H     1 <1>   0.0720 
 46 H        7.5270     4.4020     2.4420 H     1 <1>   0.0720 
 47 H        8.1190     6.0360     2.5910 H     1 <1>   0.0720 
 48 H        8.8080     4.9820     1.3850 H     1 <1>   0.0720 
@<TRIPOS>BOND
  1   1   2  2   
  2   2   3  am  
  3   2   4  am  
  4   3   5  am  
  5   3   6  1   
  6   4   7  1   
  7   4   8  1   
  8   5   9  2   
  9   5  10  1   
 10   6  25  1   
 11   6  26  1   
 12   6  27  1   
 13   7  10  2   
 14   7  11  1   
 15   8  28  1   
 16   8  29  1   
 17   8  30  1   
 18  10  12  1   
 19  11  13  ar  
 20  11  31  1   
 21  12  13  ar  
 22  12  14  1   
 23  13  15  ar  
 24  14  16  1   
 25  14  32  1   
 26  14  33  1   
 27  15  17  1   
 28  15  18  1   
 29  16  19  1   
 30  16  34  1   
 31  16  35  1   
 32  17  20  1   
 33  17  36  1   
 34  17  37  1   
 35  18  21  1   
 36  18  38  1   
 37  18  39  1   
 38  19  22  1   
 39  20  23  1   
 40  20  40  1   
 41  20  41  1   
 42  21  23  1   
 43  21  42  1   
 44  21  43  1   
 45  22  24  1   
 46  22  44  1   
 47  22  45  1   
 48  24  46  1   
 49  24  47  1   
 50  24  48  1   
@<TRIPOS>SUBSTRUCTURE
  1 ****  12 GROUP 4 **** **** 0

# MOE 2024.06 (io_trps.svl 2023.06)
