@<TRIPOS>MOLECULE
6-[4-(4-Fluoro-phenyl)-piperazin-1-ylmethyl]-2-oxo-4-thiophen-2-yl-1,2,3,4-tetra
56 59 1 0 0 
SMALL
USER_CHARGES


@<TRIPOS>ATOM
  1 S       -0.2170    -0.1410     0.7150 S.3   1 <1>  -0.0800 
  2 C       -1.4320    -1.2990     0.1920 C.2   1 <1>  -0.1400 
  3 C       -0.7990     1.0580    -0.4250 C.2   1 <1>  -0.1100 
  4 C       -2.1960    -0.7650    -0.7820 C.2   1 <1>  -0.1500 
  5 C       -1.4290    -2.6550     0.8840 C.3   1 <1>   0.5380 
  6 C       -1.8370     0.5750    -1.1310 C.2   1 <1>  -0.1500 
  7 N       -0.2680    -3.3980     0.3600 N.am  1 <1>  -0.7300 
  8 C       -2.7500    -3.3990     0.6640 C.2   1 <1>  -0.1240 
  9 C       -0.3710    -4.4440    -0.4750 C.2   1 <1>   0.6900 
 10 C       -2.7690    -4.5110    -0.1210 C.2   1 <1>  -0.0290 
 11 C       -3.8390    -2.7740     1.3450 C.2   1 <1>   0.7060 
 12 O        0.6090    -4.9150    -1.0030 O.2   1 <1>  -0.5700 
 13 N       -1.6010    -4.9610    -0.7040 N.am  1 <1>  -0.5390 
 14 C       -4.0000    -5.3710    -0.4400 C.3   1 <1>   0.2480 
 15 O       -3.6920    -2.0520     2.3120 O.2   1 <1>  -0.5700 
 16 O       -5.0780    -2.9830     0.8930 O.3   1 <1>  -0.4300 
 17 N       -3.6400    -6.7960    -0.5870 N.3   1 <1>  -0.8100 
 18 C       -6.1990    -2.3830     1.5020 C.3   1 <1>   0.1200 
 19 C       -3.2720    -7.3970     0.7210 C.3   1 <1>   0.1100 
 20 C       -4.7620    -7.5620    -1.1800 C.3   1 <1>   0.1100 
 21 C       -7.4460    -2.8560     0.7620 C.3   1 <1>  -0.2400 
 22 C       -2.9070    -8.8880     0.5950 C.3   1 <1>   0.2090 
 23 C       -4.4240    -9.0560    -1.3430 C.3   1 <1>   0.2090 
 24 N       -4.0170    -9.6580    -0.0400 N.pl3 1 <1>  -0.8380 
 25 C       -3.8970   -11.0430    -0.0190 C.ar  1 <1>   0.1000 
 26 C       -4.8110   -11.7910     0.7160 C.ar  1 <1>  -0.1500 
 27 C       -2.8830   -11.6970    -0.7170 C.ar  1 <1>  -0.1500 
 28 C       -4.7230   -13.1720     0.7600 C.ar  1 <1>  -0.1500 
 29 C       -2.7810   -13.0770    -0.6840 C.ar  1 <1>  -0.1500 
 30 C       -3.7060   -13.7890     0.0570 C.ar  1 <1>   0.1900 
 31 F       -3.6150   -15.0950     0.0930 F     1 <1>  -0.1900 
 32 H       -0.2960     2.0090    -0.4440 H     1 <1>   0.1500 
 33 H       -3.0090    -1.2590    -1.2860 H     1 <1>   0.1500 
 34 H       -1.2790    -2.5090     1.9410 H     1 <1>   0.0800 
 35 H       -2.3750     1.1100    -1.8950 H     1 <1>   0.1500 
 36 H        0.6190    -2.8990     0.3580 H     1 <1>   0.3700 
 37 H       -1.6330    -5.8340    -1.2370 H     1 <1>   0.3700 
 38 H       -4.4140    -5.0170    -1.3690 H     1 <1>   0.0800 
 39 H       -4.7530    -5.2750     0.3210 H     1 <1>   0.0800 
 40 H       -6.0920    -1.3130     1.4370 H     1 <1>   0.0800 
 41 H       -6.2290    -2.6800     2.5370 H     1 <1>   0.0800 
 42 H       -4.0930    -7.3040     1.4110 H     1 <1>   0.0800 
 43 H       -2.4280    -6.8750     1.1360 H     1 <1>   0.0800 
 44 H       -4.9980    -7.1560    -2.1480 H     1 <1>   0.0800 
 45 H       -5.6350    -7.4750    -0.5560 H     1 <1>   0.0800 
 46 H       -7.4000    -2.5600    -0.2710 H     1 <1>   0.0800 
 47 H       -8.3200    -2.4120     1.2050 H     1 <1>   0.0800 
 48 H       -7.5360    -3.9250     0.8290 H     1 <1>   0.0800 
 49 H       -2.7090    -9.2940     1.5720 H     1 <1>   0.0800 
 50 H       -2.0140    -8.9840     0.0030 H     1 <1>   0.0800 
 51 H       -3.6260    -9.1630    -2.0560 H     1 <1>   0.0800 
 52 H       -5.2850    -9.5800    -1.7200 H     1 <1>   0.0800 
 53 H       -5.5870   -11.2750     1.2500 H     1 <1>   0.1500 
 54 H       -2.1790   -11.1180    -1.2850 H     1 <1>   0.1500 
 55 H       -5.4240   -13.7590     1.3250 H     1 <1>   0.1500 
 56 H       -2.0040   -13.5930    -1.2180 H     1 <1>   0.1500 
@<TRIPOS>BOND
  1   1   2  1   
  2   1   3  1   
  3   2   4  2   
  4   2   5  1   
  5   3   6  2   
  6   3  32  1   
  7   4   6  1   
  8   4  33  1   
  9   5   7  1   
 10   5   8  1   
 11   5  34  1   
 12   6  35  1   
 13   7   9  am  
 14   7  36  1   
 15   8  10  2   
 16   8  11  1   
 17   9  12  2   
 18   9  13  am  
 19  10  13  1   
 20  10  14  1   
 21  11  15  2   
 22  11  16  1   
 23  13  37  1   
 24  14  17  1   
 25  14  38  1   
 26  14  39  1   
 27  16  18  1   
 28  17  19  1   
 29  17  20  1   
 30  18  21  1   
 31  18  40  1   
 32  18  41  1   
 33  19  22  1   
 34  19  42  1   
 35  19  43  1   
 36  20  23  1   
 37  20  44  1   
 38  20  45  1   
 39  21  46  1   
 40  21  47  1   
 41  21  48  1   
 42  22  24  1   
 43  22  49  1   
 44  22  50  1   
 45  23  24  1   
 46  23  51  1   
 47  23  52  1   
 48  24  25  1   
 49  25  26  ar  
 50  25  27  ar  
 51  26  28  ar  
 52  26  53  1   
 53  27  29  ar  
 54  27  54  1   
 55  28  30  ar  
 56  28  55  1   
 57  29  30  ar  
 58  29  56  1   
 59  30  31  1   
@<TRIPOS>SUBSTRUCTURE
  1 ****  17 GROUP 4 **** **** 0

# MOE 2024.06 (io_trps.svl 2023.06)
