@<TRIPOS>MOLECULE
NONAME
54 55 1 0 0 
SMALL
USER_CHARGES


@<TRIPOS>ATOM
  1 S        0.5590     0.6370    -0.6770 S.o2  1 <1>   1.5760 
  2 O        1.3650     0.7580    -1.8710 O.2   1 <1>  -0.6500 
  3 O        1.1480     0.1960     0.5660 O.2   1 <1>  -0.6500 
  4 N       -0.1850     2.1740    -0.4340 N.am  1 <1>  -0.6930 
  5 N       -0.7850    -0.3290    -1.0500 N.am  1 <1>  -0.8490 
  6 C       -1.2250     2.3220     0.4720 C.ar  1 <1>   0.1990 
  7 C        0.6940     3.3600    -0.6680 C.3   1 <1>   0.2570 
  8 C       -0.5080    -1.3220    -2.0890 C.3   1 <1>   0.1160 
  9 C       -1.3820    -0.9730     0.1240 C.3   1 <1>   0.1160 
 10 C       -2.5240     2.4770     0.0070 C.ar  1 <1>  -0.1500 
 11 C       -1.0040     2.3100     1.8440 C.ar  1 <1>  -0.1500 
 12 C        1.8130     3.5380     0.3750 C.2   1 <1>   0.5690 
 13 C       -3.5810     2.6180     0.8890 C.ar  1 <1>  -0.1500 
 14 C       -2.0560     2.4510     2.7310 C.ar  1 <1>  -0.1500 
 15 O        1.5310     4.1830     1.3600 O.2   1 <1>  -0.5700 
 16 N        3.0750     3.0050     0.2240 N.am  1 <1>  -0.6600 
 17 C       -3.3470     2.6050     2.2540 C.ar  1 <1>  -0.1500 
 18 C        3.6520     2.4620    -1.0390 C.3   1 <1>   0.1400 
 19 C        3.9710     2.8570     1.4060 C.3   1 <1>   0.1400 
 20 C        4.9930     3.1390    -1.3300 C.3   1 <1>  -0.1600 
 21 C        5.3100     3.5460     1.1360 C.3   1 <1>  -0.1600 
 22 C        5.9710     3.0070    -0.1450 C.3   1 <1>  -0.0190 
 23 C        7.3110     3.6940    -0.4020 C.2   1 <1>   0.6590 
 24 O        7.4760     4.4890    -1.2930 O.2   1 <1>  -0.5700 
 25 O        8.2900     3.3550     0.4250 O.3   1 <1>  -0.4300 
 26 C        9.5770     3.9160     0.3090 C.3   1 <1>   0.1200 
 27 C       10.4520     3.3250     1.4100 C.3   1 <1>  -0.2400 
 28 H        0.0810     4.2420    -0.6290 H     1 <1>   0.0800 
 29 H        1.1000     3.3130    -1.6590 H     1 <1>   0.0800 
 30 H       -0.2030    -0.8300    -2.9970 H     1 <1>   0.0800 
 31 H       -1.3950    -1.8950    -2.3010 H     1 <1>   0.0800 
 32 H        0.2770    -1.9880    -1.7720 H     1 <1>   0.0800 
 33 H       -1.6350    -0.2400     0.8690 H     1 <1>   0.0800 
 34 H       -0.6930    -1.6780     0.5580 H     1 <1>   0.0800 
 35 H       -2.2840    -1.4880    -0.1560 H     1 <1>   0.0800 
 36 H       -2.6970     2.4780    -1.0540 H     1 <1>   0.1500 
 37 H       -0.0010     2.1890     2.2160 H     1 <1>   0.1500 
 38 H       -4.5830     2.7370     0.5150 H     1 <1>   0.1500 
 39 H       -1.8680     2.4440     3.7900 H     1 <1>   0.1500 
 40 H       -4.1660     2.7170     2.9430 H     1 <1>   0.1500 
 41 H        3.0010     2.6330    -1.8750 H     1 <1>   0.0800 
 42 H        3.7910     1.3990    -0.9330 H     1 <1>   0.0800 
 43 H        4.1270     1.8080     1.5920 H     1 <1>   0.0800 
 44 H        3.5200     3.2820     2.2870 H     1 <1>   0.0800 
 45 H        4.8170     4.1790    -1.5440 H     1 <1>   0.0800 
 46 H        5.4280     2.6960    -2.2080 H     1 <1>   0.0800 
 47 H        5.9600     3.3860     1.9770 H     1 <1>   0.0800 
 48 H        5.1430     4.6060     1.0470 H     1 <1>   0.0800 
 49 H        6.1800     1.9620    -0.0030 H     1 <1>   0.0800 
 50 H        9.4930     4.9850     0.4120 H     1 <1>   0.0800 
 51 H        9.9660     3.6770    -0.6670 H     1 <1>   0.0800 
 52 H       10.0440     3.5630     2.3750 H     1 <1>   0.0800 
 53 H       11.4420     3.7380     1.3450 H     1 <1>   0.0800 
 54 H       10.5180     2.2580     1.2980 H     1 <1>   0.0800 
@<TRIPOS>BOND
  1   1   2  2   
  2   1   3  2   
  3   1   4  am  
  4   1   5  am  
  5   4   6  1   
  6   4   7  1   
  7   5   8  1   
  8   5   9  1   
  9   6  10  ar  
 10   6  11  ar  
 11   7  12  1   
 12   7  28  1   
 13   7  29  1   
 14   8  30  1   
 15   8  31  1   
 16   8  32  1   
 17   9  33  1   
 18   9  34  1   
 19   9  35  1   
 20  10  13  ar  
 21  10  36  1   
 22  11  14  ar  
 23  11  37  1   
 24  12  15  2   
 25  12  16  am  
 26  13  17  ar  
 27  13  38  1   
 28  14  17  ar  
 29  14  39  1   
 30  16  18  1   
 31  16  19  1   
 32  17  40  1   
 33  18  20  1   
 34  18  41  1   
 35  18  42  1   
 36  19  21  1   
 37  19  43  1   
 38  19  44  1   
 39  20  22  1   
 40  20  45  1   
 41  20  46  1   
 42  21  22  1   
 43  21  47  1   
 44  21  48  1   
 45  22  23  1   
 46  22  49  1   
 47  23  24  2   
 48  23  25  1   
 49  25  26  1   
 50  26  27  1   
 51  26  50  1   
 52  26  51  1   
 53  27  52  1   
 54  27  53  1   
 55  27  54  1   
@<TRIPOS>SUBSTRUCTURE
  1 ****  16 GROUP 4 **** **** 0

# MOE 2024.06 (io_trps.svl 2023.06)
