@<TRIPOS>MOLECULE
7-(2-Chloro-benzyl)-8-(2-methoxy-ethylamino)-1,3-dimethyl-3,7-dihydro-purine-2,6
47 49 1 0 0 
SMALL
USER_CHARGES


@<TRIPOS>ATOM
  1 CL      -0.5040    -2.4690    -2.6930 Cl    1 <1>  -0.1850 
  2 C        0.7200    -2.1870    -1.4800 C.ar  1 <1>   0.1690 
  3 C        0.4120    -2.3310    -0.1350 C.ar  1 <1>  -0.1510 
  4 C        1.9960    -1.8570    -1.8960 C.ar  1 <1>  -0.1580 
  5 C        1.4140    -2.1310     0.8050 C.ar  1 <1>  -0.1580 
  6 C       -0.9850    -2.7370     0.2970 C.3   1 <1>   0.4920 
  7 C        2.9890    -1.6680    -0.9510 C.ar  1 <1>  -0.1580 
  8 C        2.6960    -1.8040     0.3950 C.ar  1 <1>  -0.1580 
  9 N       -1.1970    -4.2060     0.1420 N.pl3 1 <1>  -0.7680 
 10 C       -0.3600    -5.2150    -0.1240 C.cat 1 <1>   1.0690 
 11 C       -2.4890    -4.7660     0.2130 C.2   1 <1>   0.2700 
 12 N       -1.0400    -6.3430    -0.2270 N.pl3 1 <1>  -0.7040 
 13 N        0.9640    -5.1470    -0.2590 N.pl3 1 <1>  -0.7180 
 14 C       -3.7980    -4.2470     0.4720 C.2   1 <1>   0.6990 
 15 C       -2.3530    -6.0870    -0.0160 C.2   1 <1>   0.4200 
 16 C        1.8940    -6.1740    -0.8170 C.3   1 <1>   0.1600 
 17 O       -3.9640    -3.0590     0.6970 O.2   1 <1>  -0.5750 
 18 N       -4.8690    -5.1320     0.4660 N.am  1 <1>  -0.4260 
 19 N       -3.4030    -6.9820    -0.0120 N.am  1 <1>  -0.4420 
 20 C        2.1250    -7.3720     0.1180 C.3   1 <1>   0.1120 
 21 C       -4.6810    -6.4860     0.2020 C.2   1 <1>   0.6860 
 22 C       -6.2570    -4.6310     0.7120 C.3   1 <1>   0.0520 
 23 C       -3.1730    -8.4310    -0.2840 C.3   1 <1>   0.0520 
 24 O        0.9360    -8.0890     0.2810 O.3   1 <1>  -0.5650 
 25 O       -5.6360    -7.2340     0.1530 O.2   1 <1>  -0.5750 
 26 C        1.0850    -9.2300     1.0690 C.3   1 <1>   0.0310 
 27 H        2.2100    -1.7490    -2.9450 H     1 <1>   0.1420 
 28 H        1.2120    -2.2230     1.8610 H     1 <1>   0.1420 
 29 H       -1.7110    -2.2020    -0.2930 H     1 <1>   0.0720 
 30 H       -1.1440    -2.4640     1.3270 H     1 <1>   0.0720 
 31 H        3.9870    -1.4060    -1.2620 H     1 <1>   0.1420 
 32 H        3.4720    -1.6450     1.1270 H     1 <1>   0.1420 
 33 H       -0.5420    -7.2430    -0.2670 H     1 <1>   0.4440 
 34 H        1.3830    -4.2190    -0.1410 H     1 <1>   0.4440 
 35 H        2.8440    -5.7030    -1.0070 H     1 <1>   0.0720 
 36 H        1.5180    -6.5300    -1.7620 H     1 <1>   0.0720 
 37 H        2.4730    -7.0400     1.0820 H     1 <1>   0.0720 
 38 H        2.8590    -8.0300    -0.3160 H     1 <1>   0.0720 
 39 H       -6.2430    -3.6950     1.2440 H     1 <1>   0.0720 
 40 H       -6.8090    -5.3430     1.3000 H     1 <1>   0.0720 
 41 H       -6.7610    -4.4930    -0.2290 H     1 <1>   0.0720 
 42 H       -2.2460    -8.7530     0.1560 H     1 <1>   0.0720 
 43 H       -3.1410    -8.5980    -1.3470 H     1 <1>   0.0720 
 44 H       -3.9680    -9.0250     0.1350 H     1 <1>   0.0720 
 45 H        0.1300    -9.7180     1.1480 H     1 <1>   0.0720 
 46 H        1.4290    -8.9460     2.0490 H     1 <1>   0.0720 
 47 H        1.7910    -9.8970     0.6020 H     1 <1>   0.0720 
@<TRIPOS>BOND
  1   1   2  1   
  2   2   3  ar  
  3   2   4  ar  
  4   3   5  ar  
  5   3   6  1   
  6   4   7  ar  
  7   4  27  1   
  8   5   8  ar  
  9   5  28  1   
 10   6   9  1   
 11   6  29  1   
 12   6  30  1   
 13   7   8  ar  
 14   7  31  1   
 15   8  32  1   
 16   9  10  ar  
 17   9  11  1   
 18  10  12  ar  
 19  10  13  ar  
 20  11  14  1   
 21  11  15  2   
 22  12  15  1   
 23  12  33  1   
 24  13  16  1   
 25  13  34  1   
 26  14  17  2   
 27  14  18  am  
 28  15  19  1   
 29  16  20  1   
 30  16  35  1   
 31  16  36  1   
 32  18  21  am  
 33  18  22  1   
 34  19  21  am  
 35  19  23  1   
 36  20  24  1   
 37  20  37  1   
 38  20  38  1   
 39  21  25  2   
 40  22  39  1   
 41  22  40  1   
 42  22  41  1   
 43  23  42  1   
 44  23  43  1   
 45  23  44  1   
 46  24  26  1   
 47  26  45  1   
 48  26  46  1   
 49  26  47  1   
@<TRIPOS>SUBSTRUCTURE
  1 ****   9 GROUP 4 **** **** 0

# MOE 2024.06 (io_trps.svl 2023.06)
