@<TRIPOS>MOLECULE
7-(2-Hydroxy-ethyl)-8-(3-isopropoxy-propylamino)-3-methyl-3,7-dihydro-purine-2,6
47 48 1 0 0 
SMALL
USER_CHARGES


@<TRIPOS>ATOM
  1 O        1.5480    -0.0930    -2.3620 O.2   1 <1>  -0.5750 
  2 C        2.3570     0.5630    -1.7480 C.2   1 <1>   0.6860 
  3 N        3.5030     0.0050    -1.2000 N.am  1 <1>  -0.4420 
  4 N        2.1260     1.9000    -1.5960 N.am  1 <1>  -0.4960 
  5 C        4.3610     0.8490    -0.5110 C.2   1 <1>   0.4200 
  6 C        3.8110    -1.4460    -1.3580 C.3   1 <1>   0.0510 
  7 C        2.9660     2.7450    -0.9290 C.2   1 <1>   0.6990 
  8 N        5.5320     0.5240     0.0990 N.pl3 1 <1>  -0.7040 
  9 C        4.1480     2.1760    -0.3500 C.2   1 <1>   0.2700 
 10 O        2.6840     3.9240    -0.8600 O.2   1 <1>  -0.5750 
 11 C        6.0510     1.6340     0.6130 C.cat 1 <1>   1.0680 
 12 N        5.2390     2.6680     0.3920 N.pl3 1 <1>  -0.7680 
 13 N        7.2200     1.6980     1.2350 N.pl3 1 <1>  -0.7180 
 14 C        5.3550     4.0700     0.9030 C.3   1 <1>   0.3470 
 15 C        8.1650     0.6040     1.5400 C.3   1 <1>   0.1600 
 16 C        6.4560     4.8770     0.1900 C.3   1 <1>   0.1120 
 17 C        8.9010     0.2010     0.2650 C.3   1 <1>  -0.1680 
 18 O        7.7110     4.3070     0.4070 O.3   1 <1>  -0.6840 
 19 C        9.8430    -0.9720     0.5180 C.3   1 <1>   0.1120 
 20 O       10.2140    -1.4560    -0.7270 O.3   1 <1>  -0.5650 
 21 C       11.1720    -2.4630    -0.7210 C.3   1 <1>   0.1920 
 22 C       11.8360    -2.4430    -2.0930 C.3   1 <1>  -0.2470 
 23 C       10.4880    -3.8060    -0.4610 C.3   1 <1>  -0.2470 
 24 H        1.2790     2.2790    -2.0140 H     1 <1>   0.3630 
 25 H        3.0470    -1.9410    -1.9330 H     1 <1>   0.0710 
 26 H        3.8650    -1.9160    -0.3910 H     1 <1>   0.0710 
 27 H        4.7500    -1.5670    -1.8690 H     1 <1>   0.0710 
 28 H        5.9960    -0.3790     0.1130 H     1 <1>   0.4440 
 29 H        7.6200     2.6500     1.2690 H     1 <1>   0.4440 
 30 H        5.5630     4.0520     1.9600 H     1 <1>   0.0710 
 31 H        4.4180     4.5820     0.7750 H     1 <1>   0.0710 
 32 H        7.6270    -0.2400     1.9420 H     1 <1>   0.0710 
 33 H        8.8710     0.9380     2.2840 H     1 <1>   0.0710 
 34 H        6.4780     5.8830     0.5750 H     1 <1>   0.0710 
 35 H        6.2710     4.9130    -0.8700 H     1 <1>   0.0710 
 36 H        9.4780     1.0310    -0.1040 H     1 <1>   0.0710 
 37 H        8.1940    -0.0970    -0.4890 H     1 <1>   0.0710 
 38 H        8.4090     4.8580    -0.0170 H     1 <1>   0.3940 
 39 H        9.3470    -1.7610     1.0560 H     1 <1>   0.0710 
 40 H       10.7230    -0.6530     1.0510 H     1 <1>   0.0710 
 41 H       11.9090    -2.2510     0.0370 H     1 <1>   0.0710 
 42 H       11.1090    -2.6270    -2.8640 H     1 <1>   0.0710 
 43 H       12.5960    -3.2010    -2.1470 H     1 <1>   0.0710 
 44 H       12.2980    -1.4860    -2.2610 H     1 <1>   0.0710 
 45 H        9.7100    -3.9730    -1.1840 H     1 <1>   0.0710 
 46 H       10.0740    -3.8400     0.5290 H     1 <1>   0.0710 
 47 H       11.2070    -4.6010    -0.5450 H     1 <1>   0.0710 
@<TRIPOS>BOND
  1   1   2  2   
  2   2   3  am  
  3   2   4  am  
  4   3   5  1   
  5   3   6  1   
  6   4   7  am  
  7   4  24  1   
  8   5   8  1   
  9   5   9  2   
 10   6  25  1   
 11   6  26  1   
 12   6  27  1   
 13   7   9  1   
 14   7  10  2   
 15   8  11  ar  
 16   8  28  1   
 17   9  12  1   
 18  11  12  ar  
 19  11  13  ar  
 20  12  14  1   
 21  13  15  1   
 22  13  29  1   
 23  14  16  1   
 24  14  30  1   
 25  14  31  1   
 26  15  17  1   
 27  15  32  1   
 28  15  33  1   
 29  16  18  1   
 30  16  34  1   
 31  16  35  1   
 32  17  19  1   
 33  17  36  1   
 34  17  37  1   
 35  18  38  1   
 36  19  20  1   
 37  19  39  1   
 38  19  40  1   
 39  20  21  1   
 40  21  22  1   
 41  21  23  1   
 42  21  41  1   
 43  22  42  1   
 44  22  43  1   
 45  22  44  1   
 46  23  45  1   
 47  23  46  1   
 48  23  47  1   
@<TRIPOS>SUBSTRUCTURE
  1 ****   8 GROUP 4 **** **** 0

# MOE 2024.06 (io_trps.svl 2023.06)
