@<TRIPOS>MOLECULE
2,3-Dihydro-benzo[1,4]dioxine-6-carboxylic acid (2-morpholin-4-yl-5-trifluoromet
48 51 1 0 0 
SMALL
USER_CHARGES


@<TRIPOS>ATOM
  1 F       -0.2730    -1.5020     2.3790 F     1 <1>  -0.3400 
  2 C        0.1080    -1.8780     1.1650 C.3   1 <1>   1.1640 
  3 F        1.4000    -1.5820     1.0750 F     1 <1>  -0.3400 
  4 F       -0.5120    -1.0740     0.3100 F     1 <1>  -0.3400 
  5 C       -0.1880    -3.3630     0.9000 C.ar  1 <1>  -0.1440 
  6 C       -1.4980    -3.7800     0.6850 C.ar  1 <1>  -0.1500 
  7 C        0.8220    -4.3200     0.8730 C.ar  1 <1>  -0.1500 
  8 C       -1.8040    -5.1120     0.4470 C.ar  1 <1>   0.1170 
  9 C        0.5280    -5.6500     0.6320 C.ar  1 <1>  -0.1500 
 10 N       -3.1020    -5.5930     0.2210 N.am  1 <1>  -0.5470 
 11 C       -0.7770    -6.0650     0.4120 C.ar  1 <1>   0.1000 
 12 C       -4.3620    -5.0600     0.3130 C.2   1 <1>   0.5440 
 13 N       -1.0800    -7.4170     0.1640 N.pl3 1 <1>  -0.8380 
 14 O       -4.5170    -3.9230     0.7160 O.2   1 <1>  -0.5700 
 15 C       -5.5060    -5.8750    -0.0520 C.ar  1 <1>   0.0860 
 16 C       -0.5250    -8.0530    -1.0740 C.3   1 <1>   0.2090 
 17 C       -1.1170    -8.3340     1.3460 C.3   1 <1>   0.2090 
 18 C       -6.7540    -5.6610     0.5360 C.ar  1 <1>  -0.1500 
 19 C       -5.4070    -6.9030    -0.9980 C.ar  1 <1>  -0.1500 
 20 C        0.7060    -8.9350    -0.7910 C.3   1 <1>   0.1200 
 21 C        0.1680    -9.1720     1.4740 C.3   1 <1>   0.1200 
 22 C       -7.8460    -6.4420     0.2120 C.ar  1 <1>   0.0830 
 23 C       -6.4940    -7.6950    -1.3260 C.ar  1 <1>  -0.1500 
 24 O        0.4690    -9.8170     0.2690 O.3   1 <1>  -0.5600 
 25 O       -9.0390    -6.1840     0.8050 O.3   1 <1>  -0.3630 
 26 C       -7.7160    -7.4760    -0.7170 C.ar  1 <1>   0.0830 
 27 C      -10.1880    -6.7600     0.2120 C.3   1 <1>   0.1200 
 28 O       -8.7620    -8.2730    -1.0340 O.3   1 <1>  -0.3630 
 29 C       -9.9030    -8.2120    -0.1980 C.3   1 <1>   0.1200 
 30 H       -2.2910    -3.0530     0.7030 H     1 <1>   0.1500 
 31 H        1.8490    -4.0390     1.0400 H     1 <1>   0.1500 
 32 H        1.3210    -6.3730     0.6180 H     1 <1>   0.1500 
 33 H       -3.0500    -6.5960     0.0260 H     1 <1>   0.3700 
 34 H       -0.2610    -7.2880    -1.7840 H     1 <1>   0.0800 
 35 H       -1.2900    -8.6620    -1.5220 H     1 <1>   0.0800 
 36 H       -1.9570    -8.9990     1.2480 H     1 <1>   0.0800 
 37 H       -1.2580    -7.7580     2.2450 H     1 <1>   0.0800 
 38 H       -6.8710    -4.8710     1.2570 H     1 <1>   0.1500 
 39 H       -4.4700    -7.0850    -1.4930 H     1 <1>   0.1500 
 40 H        1.5600    -8.3290    -0.5480 H     1 <1>   0.0800 
 41 H        0.9430    -9.5230    -1.6590 H     1 <1>   0.0800 
 42 H        0.0420    -9.9280     2.2280 H     1 <1>   0.0800 
 43 H        1.0000    -8.5480     1.7500 H     1 <1>   0.0800 
 44 H       -6.4040    -8.4830    -2.0510 H     1 <1>   0.1500 
 45 H      -10.4490    -6.1730    -0.6510 H     1 <1>   0.0800 
 46 H      -10.9890    -6.7140     0.9260 H     1 <1>   0.0800 
 47 H      -10.7330    -8.6280    -0.7390 H     1 <1>   0.0800 
 48 H       -9.7110    -8.8140     0.6730 H     1 <1>   0.0800 
@<TRIPOS>BOND
  1   1   2  1   
  2   2   3  1   
  3   2   4  1   
  4   2   5  1   
  5   5   6  ar  
  6   5   7  ar  
  7   6   8  ar  
  8   6  30  1   
  9   7   9  ar  
 10   7  31  1   
 11   8  10  1   
 12   8  11  ar  
 13   9  11  ar  
 14   9  32  1   
 15  10  12  am  
 16  10  33  1   
 17  11  13  1   
 18  12  14  2   
 19  12  15  1   
 20  13  16  1   
 21  13  17  1   
 22  15  18  ar  
 23  15  19  ar  
 24  16  20  1   
 25  16  34  1   
 26  16  35  1   
 27  17  21  1   
 28  17  36  1   
 29  17  37  1   
 30  18  22  ar  
 31  18  38  1   
 32  19  23  ar  
 33  19  39  1   
 34  20  24  1   
 35  20  40  1   
 36  20  41  1   
 37  21  24  1   
 38  21  42  1   
 39  21  43  1   
 40  22  25  1   
 41  22  26  ar  
 42  23  26  ar  
 43  23  44  1   
 44  25  27  1   
 45  26  28  1   
 46  27  29  1   
 47  27  45  1   
 48  27  46  1   
 49  28  29  1   
 50  29  47  1   
 51  29  48  1   
@<TRIPOS>SUBSTRUCTURE
  1 ****  10 GROUP 4 **** **** 0

# MOE 2024.06 (io_trps.svl 2023.06)
