@<TRIPOS>MOLECULE
N-[1-(4-Ethyl-5-mercapto-4H-[1,2,4]triazol-3-yl)-2-methyl-propyl]-4-methyl-benza
44 45 1 0 0 
SMALL
USER_CHARGES


@<TRIPOS>ATOM
  1 S       -0.6590     0.6570    -2.2670 S.3   1 <1>  -0.9360 
  2 C       -1.3340     1.9500    -1.5500 C.cat 1 <1>   0.7360 
  3 N       -0.9900     3.1930    -1.7910 N.pl3 1 <1>  -0.3930 
  4 N       -2.2810     1.9450    -0.6320 N.pl3 1 <1>  -0.7640 
  5 N       -1.7160     4.0520    -1.0180 N.2   1 <1>  -0.2600 
  6 C       -2.4930     3.2810    -0.3350 C.2   1 <1>   0.4850 
  7 C       -3.0080     0.7350    -0.2170 C.3   1 <1>   0.3540 
  8 C       -3.4850     3.7650     0.7590 C.3   1 <1>   0.3880 
  9 C       -2.4630     0.2540     1.1230 C.3   1 <1>  -0.2400 
 10 N       -4.9110     3.3190     0.6120 N.am  1 <1>  -0.7300 
 11 C       -3.4410     5.2940     1.0460 C.3   1 <1>  -0.0800 
 12 C       -5.6190     3.2140    -0.5520 C.2   1 <1>   0.5440 
 13 C       -4.0980     5.6420     2.3930 C.3   1 <1>  -0.2400 
 14 C       -4.0750     6.1630    -0.0580 C.3   1 <1>  -0.2400 
 15 O       -5.0440     3.4060    -1.6010 O.2   1 <1>  -0.5700 
 16 C       -7.0390     2.9060    -0.5260 C.ar  1 <1>   0.0860 
 17 C       -7.8770     3.3130    -1.5640 C.ar  1 <1>  -0.1500 
 18 C       -7.6270     2.2000     0.5270 C.ar  1 <1>  -0.1500 
 19 C       -9.2330     3.0450    -1.5490 C.ar  1 <1>  -0.1500 
 20 C       -8.9840     1.9310     0.5470 C.ar  1 <1>  -0.1500 
 21 C       -9.7970     2.3560    -0.4890 C.ar  1 <1>  -0.1440 
 22 C      -11.2860     2.0620    -0.4710 C.3   1 <1>  -0.0970 
 23 H       -0.2820     3.4150    -2.4880 H     1 <1>   0.4500 
 24 H       -2.8830    -0.0380    -0.9570 H     1 <1>   0.0800 
 25 H       -4.0600     0.9450    -0.1460 H     1 <1>   0.0800 
 26 H       -3.1210     3.2930     1.6530 H     1 <1>   0.0800 
 27 H       -1.4140     0.0330     1.0250 H     1 <1>   0.0800 
 28 H       -2.9720    -0.6470     1.4130 H     1 <1>   0.0800 
 29 H       -2.6080     0.9940     1.8860 H     1 <1>   0.0800 
 30 H       -5.4500     3.4010     1.4730 H     1 <1>   0.3700 
 31 H       -2.4030     5.5740     1.1230 H     1 <1>   0.0800 
 32 H       -5.1560     5.4470     2.3720 H     1 <1>   0.0800 
 33 H       -3.9570     6.6870     2.6110 H     1 <1>   0.0800 
 34 H       -3.6550     5.0750     3.1930 H     1 <1>   0.0800 
 35 H       -5.1370     6.0030    -0.1150 H     1 <1>   0.0800 
 36 H       -3.6530     5.9350    -1.0210 H     1 <1>   0.0800 
 37 H       -3.9020     7.2050     0.1430 H     1 <1>   0.0800 
 38 H       -7.4530     3.8480    -2.3970 H     1 <1>   0.1500 
 39 H       -7.0210     1.8460     1.3400 H     1 <1>   0.1500 
 40 H       -9.8500     3.3760    -2.3670 H     1 <1>   0.1500 
 41 H       -9.4090     1.3860     1.3730 H     1 <1>   0.1500 
 42 H      -11.8290     2.8400    -0.9770 H     1 <1>   0.0800 
 43 H      -11.6470     2.0020     0.5400 H     1 <1>   0.0800 
 44 H      -11.4790     1.1270    -0.9650 H     1 <1>   0.0800 
@<TRIPOS>BOND
  1   1   2  1   
  2   2   3  ar  
  3   2   4  ar  
  4   3   5  1   
  5   3  23  1   
  6   4   6  1   
  7   4   7  1   
  8   5   6  2   
  9   6   8  1   
 10   7   9  1   
 11   7  24  1   
 12   7  25  1   
 13   8  10  1   
 14   8  11  1   
 15   8  26  1   
 16   9  27  1   
 17   9  28  1   
 18   9  29  1   
 19  10  12  am  
 20  10  30  1   
 21  11  13  1   
 22  11  14  1   
 23  11  31  1   
 24  12  15  2   
 25  12  16  1   
 26  13  32  1   
 27  13  33  1   
 28  13  34  1   
 29  14  35  1   
 30  14  36  1   
 31  14  37  1   
 32  16  17  ar  
 33  16  18  ar  
 34  17  19  ar  
 35  17  38  1   
 36  18  20  ar  
 37  18  39  1   
 38  19  21  ar  
 39  19  40  1   
 40  20  21  ar  
 41  20  41  1   
 42  21  22  1   
 43  22  42  1   
 44  22  43  1   
 45  22  44  1   
@<TRIPOS>SUBSTRUCTURE
  1 ****  12 GROUP 4 **** **** 0

# MOE 2024.06 (io_trps.svl 2023.06)
