@<TRIPOS>MOLECULE
1-(4-Methoxy-3-methyl-benzenesulfonyl)-piperidine-4-carboxylic acid (3-isopropox
60 61 1 0 0 
SMALL
USER_CHARGES


@<TRIPOS>ATOM
  1 S        0.1000    -0.1610     2.3200 S.o2  1 <1>   1.4470 
  2 O        0.4910    -1.2930     3.1320 O.2   1 <1>  -0.6500 
  3 O       -0.3000     1.0700     2.9710 O.2   1 <1>  -0.6500 
  4 N        1.4240     0.2300     1.3350 N.am  1 <1>  -0.8490 
  5 C       -1.1610    -0.6860     1.1270 C.ar  1 <1>  -0.0090 
  6 C        2.6590     0.3260     2.1160 C.3   1 <1>   0.1960 
  7 C        1.1830     1.4460     0.5510 C.3   1 <1>   0.1960 
  8 C       -2.4380    -0.1370     1.1350 C.ar  1 <1>  -0.1500 
  9 C       -0.8770    -1.6530     0.1710 C.ar  1 <1>  -0.1500 
 10 C        3.8600     0.5290     1.1880 C.3   1 <1>  -0.1600 
 11 C        2.3300     1.6730    -0.4350 C.3   1 <1>  -0.1600 
 12 C       -3.4040    -0.5270     0.2200 C.ar  1 <1>  -0.1430 
 13 C       -1.8270    -2.0550    -0.7500 C.ar  1 <1>  -0.1500 
 14 C        3.6810     1.7670     0.2960 C.3   1 <1>  -0.0190 
 15 C       -3.0990    -1.4930    -0.7330 C.ar  1 <1>   0.0830 
 16 C       -4.7880     0.1050     0.2680 C.3   1 <1>  -0.0970 
 17 C        4.8560     1.9260    -0.6660 C.2   1 <1>   0.5690 
 18 O       -4.0730    -1.8440    -1.6120 O.3   1 <1>  -0.3630 
 19 O        4.9110     1.2480    -1.6640 O.2   1 <1>  -0.5700 
 20 N        5.8240     2.8290    -0.3600 N.am  1 <1>  -0.7300 
 21 C       -3.8650    -2.8290    -2.6000 C.3   1 <1>   0.0400 
 22 C        7.0540     3.0500    -1.1480 C.3   1 <1>   0.1400 
 23 C        8.2560     3.0160    -0.2080 C.3   1 <1>  -0.1600 
 24 C        9.5580     3.1870    -0.9840 C.3   1 <1>   0.1200 
 25 O       10.5950     3.1950    -0.0590 O.3   1 <1>  -0.5600 
 26 C       11.8730     3.3010    -0.5900 C.3   1 <1>   0.2000 
 27 C       12.8210     2.6780     0.4290 C.3   1 <1>  -0.2400 
 28 C       12.1960     4.7790    -0.8120 C.3   1 <1>  -0.2400 
 29 H        2.8090    -0.5840     2.6740 H     1 <1>   0.0800 
 30 H        2.5850     1.1420     2.8170 H     1 <1>   0.0800 
 31 H        1.0890     2.2960     1.2070 H     1 <1>   0.0800 
 32 H        0.2650     1.3470    -0.0040 H     1 <1>   0.0800 
 33 H       -2.6740     0.6100     1.8740 H     1 <1>   0.1500 
 34 H        0.1070    -2.0930     0.1500 H     1 <1>   0.1500 
 35 H        3.9740    -0.3470     0.5730 H     1 <1>   0.0800 
 36 H        4.7530     0.6320     1.7790 H     1 <1>   0.0800 
 37 H        2.1550     2.5780    -0.9890 H     1 <1>   0.0800 
 38 H        2.3480     0.8580    -1.1380 H     1 <1>   0.0800 
 39 H       -1.5570    -2.8050    -1.4690 H     1 <1>   0.1500 
 40 H        3.6500     2.6360     0.9290 H     1 <1>   0.0800 
 41 H       -4.8610     0.8290     1.0580 H     1 <1>   0.0800 
 42 H       -5.5290    -0.6580     0.4310 H     1 <1>   0.0800 
 43 H       -4.9970     0.5930    -0.6670 H     1 <1>   0.0800 
 44 H        5.7500     3.3810     0.4950 H     1 <1>   0.3700 
 45 H       -4.7750    -2.9340    -3.1630 H     1 <1>   0.0800 
 46 H       -3.6240    -3.7600    -2.1180 H     1 <1>   0.0800 
 47 H       -3.0680    -2.5100    -3.2480 H     1 <1>   0.0800 
 48 H        6.9920     4.0050    -1.6420 H     1 <1>   0.0800 
 49 H        7.1520     2.2820    -1.8990 H     1 <1>   0.0800 
 50 H        8.2830     2.0690     0.3030 H     1 <1>   0.0800 
 51 H        8.1740     3.8110     0.5120 H     1 <1>   0.0800 
 52 H        9.5610     4.1200    -1.5220 H     1 <1>   0.0800 
 53 H        9.7050     2.3660    -1.6650 H     1 <1>   0.0800 
 54 H       11.9250     2.7490    -1.5150 H     1 <1>   0.0800 
 55 H       12.7590     3.2030     1.3650 H     1 <1>   0.0800 
 56 H       13.8330     2.7270     0.0710 H     1 <1>   0.0800 
 57 H       12.5630     1.6460     0.5830 H     1 <1>   0.0800 
 58 H       12.0740     5.3270     0.1050 H     1 <1>   0.0800 
 59 H       11.5580     5.2000    -1.5670 H     1 <1>   0.0800 
 60 H       13.2140     4.8840    -1.1410 H     1 <1>   0.0800 
@<TRIPOS>BOND
  1   1   2  2   
  2   1   3  2   
  3   1   4  am  
  4   1   5  1   
  5   4   6  1   
  6   4   7  1   
  7   5   8  ar  
  8   5   9  ar  
  9   6  10  1   
 10   6  29  1   
 11   6  30  1   
 12   7  11  1   
 13   7  31  1   
 14   7  32  1   
 15   8  12  ar  
 16   8  33  1   
 17   9  13  ar  
 18   9  34  1   
 19  10  14  1   
 20  10  35  1   
 21  10  36  1   
 22  11  14  1   
 23  11  37  1   
 24  11  38  1   
 25  12  15  ar  
 26  12  16  1   
 27  13  15  ar  
 28  13  39  1   
 29  14  17  1   
 30  14  40  1   
 31  15  18  1   
 32  16  41  1   
 33  16  42  1   
 34  16  43  1   
 35  17  19  2   
 36  17  20  am  
 37  18  21  1   
 38  20  22  1   
 39  20  44  1   
 40  21  45  1   
 41  21  46  1   
 42  21  47  1   
 43  22  23  1   
 44  22  48  1   
 45  22  49  1   
 46  23  24  1   
 47  23  50  1   
 48  23  51  1   
 49  24  25  1   
 50  24  52  1   
 51  24  53  1   
 52  25  26  1   
 53  26  27  1   
 54  26  28  1   
 55  26  54  1   
 56  27  55  1   
 57  27  56  1   
 58  27  57  1   
 59  28  58  1   
 60  28  59  1   
 61  28  60  1   
@<TRIPOS>SUBSTRUCTURE
  1 ****  11 GROUP 4 **** **** 0

# MOE 2024.06 (io_trps.svl 2023.06)
