@<TRIPOS>MOLECULE
7-Ethyl-8-[4-(4-fluoro-phenyl)-piperazin-1-ylmethyl]-1,3-dimethyl-3,7-dihydro-pu
55 58 1 0 0 
SMALL
USER_CHARGES


@<TRIPOS>ATOM
  1 F       -0.1720     0.9570     0.9810 F     1 <1>  -0.1900 
  2 C       -0.8960     2.0150     0.7160 C.ar  1 <1>   0.1900 
  3 C       -2.1760     1.8400     0.2240 C.ar  1 <1>  -0.1500 
  4 C       -0.3550     3.2670     0.9400 C.ar  1 <1>  -0.1500 
  5 C       -2.9360     2.9640    -0.0540 C.ar  1 <1>  -0.1500 
  6 C       -1.1280     4.3790     0.6570 C.ar  1 <1>  -0.1500 
  7 C       -2.4200     4.2410     0.1600 C.ar  1 <1>   0.1000 
  8 N       -3.1670     5.3800    -0.1100 N.pl3 1 <1>  -0.8380 
  9 C       -3.5370     5.6140    -1.5340 C.3   1 <1>   0.2090 
 10 C       -4.2870     5.6690     0.8230 C.3   1 <1>   0.2090 
 11 C       -4.0940     7.0390    -1.7210 C.3   1 <1>   0.1100 
 12 C       -4.8170     7.0970     0.5950 C.3   1 <1>   0.1100 
 13 N       -5.2390     7.3300    -0.8160 N.3   1 <1>  -0.8100 
 14 C       -5.7280     8.7210    -1.0130 C.3   1 <1>   0.2540 
 15 C       -7.1450     8.9190    -0.4490 C.cat 1 <1>   0.6560 
 16 N       -7.9820     7.9010    -0.2940 N.pl3 1 <1>  -0.7000 
 17 N       -7.7220    10.0480    -0.0490 N.pl3 1 <1>  -0.7640 
 18 C       -9.1400     8.3750     0.2250 C.2   1 <1>   0.4260 
 19 C       -9.0100     9.7120     0.3940 C.2   1 <1>   0.2770 
 20 C       -7.1850    11.4330    -0.0420 C.3   1 <1>   0.3540 
 21 N      -10.2760     7.6620     0.5570 N.am  1 <1>  -0.4360 
 22 C      -10.1140    10.4380     0.9550 C.2   1 <1>   0.7030 
 23 C       -7.6500    12.1500    -1.3040 C.3   1 <1>  -0.2400 
 24 C      -11.3340     8.3520     1.1280 C.2   1 <1>   0.6900 
 25 C      -10.3520     6.1870     0.3380 C.3   1 <1>   0.0600 
 26 O      -10.0490    11.6400     1.1450 O.2   1 <1>  -0.5700 
 27 N      -11.2620     9.7310     1.2910 N.am  1 <1>  -0.4200 
 28 O      -12.3210     7.7480     1.4950 O.2   1 <1>  -0.5700 
 29 C      -12.4330    10.4510     1.8830 C.3   1 <1>   0.0600 
 30 H       -2.5610     0.8500     0.0640 H     1 <1>   0.1500 
 31 H        0.6440     3.3640     1.3240 H     1 <1>   0.1500 
 32 H       -3.9330     2.8560    -0.4360 H     1 <1>   0.1500 
 33 H       -0.7410     5.3690     0.8170 H     1 <1>   0.1500 
 34 H       -4.2770     4.8950    -1.8410 H     1 <1>   0.0800 
 35 H       -2.6660     5.4840    -2.1520 H     1 <1>   0.0800 
 36 H       -3.9360     5.5710     1.8360 H     1 <1>   0.0800 
 37 H       -5.0790     4.9570     0.6700 H     1 <1>   0.0800 
 38 H       -4.4060     7.1490    -2.7450 H     1 <1>   0.0800 
 39 H       -3.2940     7.7380    -1.5380 H     1 <1>   0.0800 
 40 H       -4.0330     7.7870     0.8620 H     1 <1>   0.0800 
 41 H       -5.6450     7.2610     1.2610 H     1 <1>   0.0800 
 42 H       -5.7690     8.9360    -2.0660 H     1 <1>   0.0800 
 43 H       -5.0470     9.4160    -0.5560 H     1 <1>   0.0800 
 44 H       -7.7150     6.9400    -0.5280 H     1 <1>   0.4500 
 45 H       -6.1080    11.4160    -0.0100 H     1 <1>   0.0800 
 46 H       -7.5330    11.9610     0.8320 H     1 <1>   0.0800 
 47 H       -7.3050    11.6400    -2.1850 H     1 <1>   0.0800 
 48 H       -7.2550    13.1500    -1.3150 H     1 <1>   0.0800 
 49 H       -8.7240    12.2190    -1.3240 H     1 <1>   0.0800 
 50 H       -9.8790     5.6730     1.1570 H     1 <1>   0.0800 
 51 H       -9.8660     5.9190    -0.5830 H     1 <1>   0.0800 
 52 H      -11.3790     5.8650     0.2790 H     1 <1>   0.0800 
 53 H      -12.4360    11.4880     1.5950 H     1 <1>   0.0800 
 54 H      -12.3910    10.3860     2.9570 H     1 <1>   0.0800 
 55 H      -13.3540    10.0070     1.5450 H     1 <1>   0.0800 
@<TRIPOS>BOND
  1   1   2  1   
  2   2   3  ar  
  3   2   4  ar  
  4   3   5  ar  
  5   3  30  1   
  6   4   6  ar  
  7   4  31  1   
  8   5   7  ar  
  9   5  32  1   
 10   6   7  ar  
 11   6  33  1   
 12   7   8  1   
 13   8   9  1   
 14   8  10  1   
 15   9  11  1   
 16   9  34  1   
 17   9  35  1   
 18  10  12  1   
 19  10  36  1   
 20  10  37  1   
 21  11  13  1   
 22  11  38  1   
 23  11  39  1   
 24  12  13  1   
 25  12  40  1   
 26  12  41  1   
 27  13  14  1   
 28  14  15  1   
 29  14  42  1   
 30  14  43  1   
 31  15  16  ar  
 32  15  17  ar  
 33  16  18  1   
 34  16  44  1   
 35  17  19  1   
 36  17  20  1   
 37  18  19  2   
 38  18  21  1   
 39  19  22  1   
 40  20  23  1   
 41  20  45  1   
 42  20  46  1   
 43  21  24  am  
 44  21  25  1   
 45  22  26  2   
 46  22  27  am  
 47  23  47  1   
 48  23  48  1   
 49  23  49  1   
 50  24  27  am  
 51  24  28  2   
 52  25  50  1   
 53  25  51  1   
 54  25  52  1   
 55  27  29  1   
 56  29  53  1   
 57  29  54  1   
 58  29  55  1   
@<TRIPOS>SUBSTRUCTURE
  1 ****  13 GROUP 4 **** **** 0

# MOE 2024.06 (io_trps.svl 2023.06)
