@<TRIPOS>MOLECULE
1-Cyclohexyl-piperazin-2-one
31 32 1 0 0 
SMALL
USER_CHARGES


@<TRIPOS>ATOM
  1 O       -0.7240    -0.2640    -1.7250 O.2   1 <1>  -0.5700 
  2 C       -1.5060    -0.7330    -0.9290 C.2   1 <1>   0.5690 
  3 N       -2.2910     0.0500    -0.1150 N.am  1 <1>  -0.6600 
  4 C       -1.6150    -2.2660    -0.8580 C.3   1 <1>   0.1710 
  5 C       -2.2200     1.5400    -0.1880 C.3   1 <1>   0.2200 
  6 C       -3.2190    -0.5660     0.8910 C.3   1 <1>   0.1400 
  7 N       -2.2490    -2.7960     0.3760 N.3   1 <1>  -0.9000 
  8 C       -1.9930     2.1700     1.1950 C.3   1 <1>  -0.1600 
  9 C       -3.4790     2.1050    -0.8590 C.3   1 <1>  -0.1600 
 10 C       -3.4900    -2.0610     0.6360 C.3   1 <1>   0.1100 
 11 C       -1.9120     3.7000     1.0900 C.3   1 <1>  -0.1600 
 12 C       -3.4070     3.6360    -0.9590 C.3   1 <1>  -0.1600 
 13 C       -3.1660     4.2750     0.4160 C.3   1 <1>  -0.1600 
 14 H       -0.6280    -2.6820    -0.9500 H     1 <1>   0.0800 
 15 H       -2.1840    -2.5920    -1.7100 H     1 <1>   0.0800 
 16 H       -1.3790     1.8170    -0.8020 H     1 <1>   0.0800 
 17 H       -4.1590    -0.0440     0.8880 H     1 <1>   0.0800 
 18 H       -2.7880    -0.4590     1.8700 H     1 <1>   0.0800 
 19 H       -1.6030    -2.6100     1.1540 H     1 <1>   0.3600 
 20 H       -1.0750     1.7920     1.6100 H     1 <1>   0.0800 
 21 H       -2.8020     1.9200     1.8570 H     1 <1>   0.0800 
 22 H       -4.3520     1.8380    -0.2930 H     1 <1>   0.0800 
 23 H       -3.5690     1.6890    -1.8470 H     1 <1>   0.0800 
 24 H       -4.1540    -2.1680    -0.2060 H     1 <1>   0.0800 
 25 H       -3.9810    -2.4860     1.4940 H     1 <1>   0.0800 
 26 H       -1.0420     3.9720     0.5160 H     1 <1>   0.0800 
 27 H       -1.8030     4.1250     2.0730 H     1 <1>   0.0800 
 28 H       -4.3240     4.0140    -1.3780 H     1 <1>   0.0800 
 29 H       -2.6050     3.9100    -1.6230 H     1 <1>   0.0800 
 30 H       -3.0570     5.3400     0.3040 H     1 <1>   0.0800 
 31 H       -4.0210     4.0980     1.0460 H     1 <1>   0.0800 
@<TRIPOS>BOND
  1   1   2  2   
  2   2   3  am  
  3   2   4  1   
  4   3   5  1   
  5   3   6  1   
  6   4   7  1   
  7   4  14  1   
  8   4  15  1   
  9   5   8  1   
 10   5   9  1   
 11   5  16  1   
 12   6  10  1   
 13   6  17  1   
 14   6  18  1   
 15   7  10  1   
 16   7  19  1   
 17   8  11  1   
 18   8  20  1   
 19   8  21  1   
 20   9  12  1   
 21   9  22  1   
 22   9  23  1   
 23  10  24  1   
 24  10  25  1   
 25  11  13  1   
 26  11  26  1   
 27  11  27  1   
 28  12  13  1   
 29  12  28  1   
 30  12  29  1   
 31  13  30  1   
 32  13  31  1   
@<TRIPOS>SUBSTRUCTURE
  1 ****   3 GROUP 4 **** **** 0

# MOE 2024.06 (io_trps.svl 2023.06)
