@<TRIPOS>MOLECULE
3-(3,5-Dimethyl-[1,2,4]triazol-1-yl)-butyric acid
26 26 1 0 0 
SMALL
USER_CHARGES


@<TRIPOS>ATOM
  1 O        0.0910     1.0170     0.1880 O.co2 1 <1>  -0.9000 
  2 C        0.6900     1.8070    -0.5400 C.2   1 <1>   0.9060 
  3 O        1.8330     1.6360    -0.9590 O.co2 1 <1>  -0.9000 
  4 C        0.0290     3.1030    -0.8430 C.3   1 <1>  -0.2660 
  5 C       -0.0800     3.8630     0.4680 C.3   1 <1>   0.4340 
  6 N       -0.7390     5.1760     0.2120 N.pl3 1 <1>  -0.4570 
  7 C        1.2550     4.0760     1.1960 C.3   1 <1>  -0.2400 
  8 N       -2.0240     5.3710     0.6120 N.2   1 <1>  -0.2600 
  9 C       -0.2860     6.2620    -0.3910 C.cat 1 <1>   0.6560 
 10 C       -2.2990     6.5650     0.2350 C.2   1 <1>   0.4850 
 11 N       -1.2500     7.1510    -0.3860 N.pl3 1 <1>  -0.7000 
 12 C        1.0790     6.5220    -0.9940 C.3   1 <1>  -0.0960 
 13 C       -3.6200     7.2680     0.4410 C.3   1 <1>  -0.0720 
 14 H       -0.9450     2.8920    -1.2370 H     1 <1>   0.0800 
 15 H        0.6170     3.6160    -1.5740 H     1 <1>   0.0800 
 16 H       -0.7190     3.2940     1.1270 H     1 <1>   0.0800 
 17 H        2.0220     4.4100     0.5230 H     1 <1>   0.0800 
 18 H        1.5840     3.1370     1.6070 H     1 <1>   0.0800 
 19 H        1.1380     4.7660     2.0100 H     1 <1>   0.0800 
 20 H       -1.2300     8.0930    -0.7710 H     1 <1>   0.4500 
 21 H        1.4130     5.6770    -1.5640 H     1 <1>   0.0800 
 22 H        1.7880     6.7190    -0.2120 H     1 <1>   0.0800 
 23 H        1.0410     7.3730    -1.6470 H     1 <1>   0.0800 
 24 H       -4.3050     6.6170     0.9550 H     1 <1>   0.0800 
 25 H       -4.0450     7.5360    -0.5080 H     1 <1>   0.0800 
 26 H       -3.4770     8.1540     1.0320 H     1 <1>   0.0800 
@<TRIPOS>BOND
  1   1   2  ar  
  2   2   3  ar  
  3   2   4  1   
  4   4   5  1   
  5   4  14  1   
  6   4  15  1   
  7   5   6  1   
  8   5   7  1   
  9   5  16  1   
 10   6   8  1   
 11   6   9  ar  
 12   7  17  1   
 13   7  18  1   
 14   7  19  1   
 15   8  10  2   
 16   9  11  ar  
 17   9  12  1   
 18  10  11  1   
 19  10  13  1   
 20  11  20  1   
 21  12  21  1   
 22  12  22  1   
 23  12  23  1   
 24  13  24  1   
 25  13  25  1   
 26  13  26  1   
@<TRIPOS>SUBSTRUCTURE
  1 ****   6 GROUP 4 **** **** 0

# MOE 2024.06 (io_trps.svl 2023.06)
