@<TRIPOS>MOLECULE
7-(3-Allyloxy-2-hydroxy-propyl)-8-ethylamino-3-methyl-3,7-dihydro-purine-2,6-dio
45 46 1 0 0 
SMALL
USER_CHARGES


@<TRIPOS>ATOM
  1 O        1.9840     1.0750     2.6780 O.2   1 <1>  -0.5750 
  2 C        2.7700     1.4330     1.8330 C.2   1 <1>   0.6850 
  3 N        3.8000     0.6170     1.3830 N.am  1 <1>  -0.4430 
  4 N        2.6310     2.6840     1.3030 N.am  1 <1>  -0.4960 
  5 C        4.6270     1.1140     0.3870 C.2   1 <1>   0.4190 
  6 C        3.9980    -0.7510     1.9440 C.3   1 <1>   0.0510 
  7 C        3.4430     3.1910     0.3300 C.2   1 <1>   0.6990 
  8 N        5.6790     0.4920    -0.2140 N.pl3 1 <1>  -0.7050 
  9 C        4.4950     2.3470    -0.1540 C.2   1 <1>   0.2690 
 10 O        3.2460     4.3170    -0.0800 O.2   1 <1>  -0.5750 
 11 C        6.1900     1.3220    -1.1170 C.cat 1 <1>   1.0680 
 12 N        5.5110     2.4680    -1.1220 N.pl3 1 <1>  -0.7680 
 13 N        7.2400     1.0610    -1.8910 N.pl3 1 <1>  -0.7190 
 14 C        5.7210     3.6950    -1.9540 C.3   1 <1>   0.3470 
 15 C        8.1070    -0.1360    -1.8960 C.3   1 <1>   0.1590 
 16 C        6.4640     4.8130    -1.2000 C.3   1 <1>   0.1920 
 17 C        9.4900     0.2780    -1.4130 C.3   1 <1>  -0.2480 
 18 O        6.8880     5.7440    -2.1300 O.3   1 <1>  -0.6850 
 19 C        7.7010     4.3410    -0.4220 C.3   1 <1>   0.1110 
 20 O        8.3620     5.4540     0.0960 O.3   1 <1>  -0.5660 
 21 C        9.6360     5.2280     0.6210 C.3   1 <1>   0.2500 
 22 C        9.5700     4.2650     1.7970 C.2   1 <1>  -0.2960 
 23 C        9.7360     4.6100     3.0780 C.2   1 <1>  -0.3070 
 24 H        1.8720     3.2620     1.6590 H     1 <1>   0.3630 
 25 H        3.3650    -0.9100     2.8010 H     1 <1>   0.0710 
 26 H        5.0200    -0.8780     2.2560 H     1 <1>   0.0710 
 27 H        3.7540    -1.4890     1.2000 H     1 <1>   0.0710 
 28 H        6.0260    -0.4430    -0.0200 H     1 <1>   0.4440 
 29 H        7.5330     1.7770    -2.5550 H     1 <1>   0.4440 
 30 H        4.7660     4.0740    -2.2790 H     1 <1>   0.0710 
 31 H        6.2850     3.4370    -2.8330 H     1 <1>   0.0710 
 32 H        8.1710    -0.5300    -2.8980 H     1 <1>   0.0710 
 33 H        7.7100    -0.9050    -1.2550 H     1 <1>   0.0710 
 34 H        5.7840     5.3100    -0.5290 H     1 <1>   0.0710 
 35 H        9.9200     1.0170    -2.0670 H     1 <1>   0.0710 
 36 H       10.1400    -0.5790    -1.4110 H     1 <1>   0.0710 
 37 H        9.4470     0.6660    -0.4110 H     1 <1>   0.0710 
 38 H        7.4700     6.3850    -1.6600 H     1 <1>   0.3930 
 39 H        8.3740     3.8070    -1.0700 H     1 <1>   0.0710 
 40 H        7.4060     3.7130     0.4000 H     1 <1>   0.0710 
 41 H       10.0160     6.1810     0.9470 H     1 <1>   0.0710 
 42 H       10.2760     4.8510    -0.1580 H     1 <1>   0.0710 
 43 H        9.3830     3.2500     1.5010 H     1 <1>   0.1410 
 44 H        9.6930     3.9170     3.9010 H     1 <1>   0.1410 
 45 H        9.9270     5.6150     3.4140 H     1 <1>   0.1410 
@<TRIPOS>BOND
  1   1   2  2   
  2   2   3  am  
  3   2   4  am  
  4   3   5  1   
  5   3   6  1   
  6   4   7  am  
  7   4  24  1   
  8   5   8  1   
  9   5   9  2   
 10   6  25  1   
 11   6  26  1   
 12   6  27  1   
 13   7   9  1   
 14   7  10  2   
 15   8  11  ar  
 16   8  28  1   
 17   9  12  1   
 18  11  12  ar  
 19  11  13  ar  
 20  12  14  1   
 21  13  15  1   
 22  13  29  1   
 23  14  16  1   
 24  14  30  1   
 25  14  31  1   
 26  15  17  1   
 27  15  32  1   
 28  15  33  1   
 29  16  18  1   
 30  16  19  1   
 31  16  34  1   
 32  17  35  1   
 33  17  36  1   
 34  17  37  1   
 35  18  38  1   
 36  19  20  1   
 37  19  39  1   
 38  19  40  1   
 39  20  21  1   
 40  21  22  1   
 41  21  41  1   
 42  21  42  1   
 43  22  23  2   
 44  22  43  1   
 45  23  44  1   
 46  23  45  1   
@<TRIPOS>SUBSTRUCTURE
  1 ****  12 GROUP 4 **** **** 0

# MOE 2024.06 (io_trps.svl 2023.06)
