@<TRIPOS>MOLECULE
6-Ethyl-5-methyl-2-oxo-1,2-dihydro-pyridine-3-carboxylic acid
23 23 1 0 0 
SMALL
USER_CHARGES


@<TRIPOS>ATOM
  1 O       -0.8040     0.5980    -1.3170 O.2   1 <1>  -0.5700 
  2 C       -1.6080     1.1850    -0.6070 C.2   1 <1>   0.6160 
  3 N       -2.8240     0.5780    -0.4540 N.am  1 <1>  -0.5390 
  4 C       -1.3910     2.4030     0.0840 C.2   1 <1>  -0.2360 
  5 C       -3.8270     1.0640     0.3490 C.2   1 <1>  -0.0290 
  6 C       -0.1320     3.0510    -0.0960 C.2   1 <1>   1.0500 
  7 C       -2.3830     2.9020     0.8910 C.2   1 <1>  -0.1500 
  8 C       -3.6240     2.2360     1.0250 C.2   1 <1>  -0.1380 
  9 C       -5.0890     0.2150     0.4050 C.3   1 <1>  -0.0220 
 10 O        0.6830     3.0900     0.8430 O.co2 1 <1>  -0.9000 
 11 O        0.1120     3.6940    -1.1330 O.co2 1 <1>  -0.9000 
 12 C       -4.6560     2.8950     1.9290 C.3   1 <1>  -0.1020 
 13 C       -5.9580     0.4420    -0.8350 C.3   1 <1>  -0.2400 
 14 H       -2.9150    -0.2820    -0.9860 H     1 <1>   0.3700 
 15 H       -2.2110     3.8180     1.4300 H     1 <1>   0.1500 
 16 H       -5.6570     0.4390     1.2890 H     1 <1>   0.0800 
 17 H       -4.8120    -0.8230     0.4680 H     1 <1>   0.0800 
 18 H       -4.5090     2.5700     2.9430 H     1 <1>   0.0800 
 19 H       -5.6560     2.6570     1.6210 H     1 <1>   0.0800 
 20 H       -4.5500     3.9650     1.8920 H     1 <1>   0.0800 
 21 H       -6.2420     1.4780    -0.8990 H     1 <1>   0.0800 
 22 H       -6.8480    -0.1600    -0.7820 H     1 <1>   0.0800 
 23 H       -5.4140     0.1820    -1.7250 H     1 <1>   0.0800 
@<TRIPOS>BOND
  1   1   2  2   
  2   2   3  am  
  3   2   4  1   
  4   3   5  1   
  5   3  14  1   
  6   4   6  1   
  7   4   7  2   
  8   5   8  2   
  9   5   9  1   
 10   6  10  ar  
 11   6  11  ar  
 12   7   8  1   
 13   7  15  1   
 14   8  12  1   
 15   9  13  1   
 16   9  16  1   
 17   9  17  1   
 18  12  18  1   
 19  12  19  1   
 20  12  20  1   
 21  13  21  1   
 22  13  22  1   
 23  13  23  1   
@<TRIPOS>SUBSTRUCTURE
  1 ****   4 GROUP 4 **** **** 0

# MOE 2024.06 (io_trps.svl 2023.06)
