@<TRIPOS>MOLECULE
1-(4-Ethoxy-phenyl)-5-oxo-pyrrolidine-3-carboxylic acid (2,4-dimethoxy-phenyl)-a
52 54 1 0 0 
SMALL
USER_CHARGES


@<TRIPOS>ATOM
  1 O        0.8900     0.0820    -1.2880 O.2   1 <1>  -0.5700 
  2 C        1.8960    -0.3160    -0.7550 C.2   1 <1>   0.5690 
  3 N        2.1810    -1.6030    -0.4020 N.am  1 <1>  -0.4770 
  4 C        3.0170     0.6140    -0.3890 C.3   1 <1>  -0.0990 
  5 C        1.3320    -2.7260    -0.4580 C.ar  1 <1>   0.1170 
  6 C        3.5080    -1.6830     0.2380 C.3   1 <1>   0.1400 
  7 C        4.1830    -0.3430    -0.0770 C.3   1 <1>  -0.0190 
  8 C       -0.0140    -2.6180    -0.1290 C.ar  1 <1>  -0.1500 
  9 C        1.8210    -3.9760    -0.8300 C.ar  1 <1>  -0.1500 
 10 C        5.1360     0.1170     1.0260 C.2   1 <1>   0.5690 
 11 C       -0.8440    -3.7240    -0.1560 C.ar  1 <1>  -0.1500 
 12 C        0.9970    -5.0870    -0.8590 C.ar  1 <1>  -0.1500 
 13 O        5.0120     1.2150     1.5050 O.2   1 <1>  -0.5700 
 14 N        6.1180    -0.6960     1.4970 N.am  1 <1>  -0.5470 
 15 C       -0.3470    -4.9650    -0.5170 C.ar  1 <1>   0.0830 
 16 C        6.4990    -1.9890     1.0950 C.ar  1 <1>   0.1170 
 17 O       -1.2270    -6.0000    -0.5140 O.3   1 <1>  -0.3630 
 18 C        7.0160    -2.2610    -0.1780 C.ar  1 <1>   0.0830 
 19 C        6.3460    -3.0300     2.0000 C.ar  1 <1>  -0.1500 
 20 C       -0.8320    -7.2890    -0.9210 C.3   1 <1>   0.1200 
 21 O        7.1790    -1.2140    -1.0370 O.3   1 <1>  -0.3630 
 22 C        7.3450    -3.5670    -0.5220 C.ar  1 <1>  -0.1500 
 23 C        6.6800    -4.3280     1.6540 C.ar  1 <1>  -0.1500 
 24 C       -2.0490    -8.2050    -0.8320 C.3   1 <1>  -0.2400 
 25 C        7.8710    -1.3670    -2.2580 C.3   1 <1>   0.0400 
 26 C        7.1790    -4.6000     0.3850 C.ar  1 <1>   0.0830 
 27 O        7.5260    -5.8420    -0.0400 O.3   1 <1>  -0.3620 
 28 C        7.5230    -6.9420     0.8440 C.3   1 <1>   0.0400 
 29 H        2.7140     1.1780     0.4740 H     1 <1>   0.0800 
 30 H        3.2510     1.2800    -1.1980 H     1 <1>   0.0800 
 31 H        4.0820    -2.5030    -0.1570 H     1 <1>   0.0800 
 32 H        3.3760    -1.8090     1.2990 H     1 <1>   0.0800 
 33 H        4.7510    -0.4650    -0.9800 H     1 <1>   0.0800 
 34 H       -0.4160    -1.6600     0.1500 H     1 <1>   0.1500 
 35 H        2.8520    -4.0840    -1.1070 H     1 <1>   0.1500 
 36 H       -1.8830    -3.6290     0.1010 H     1 <1>   0.1500 
 37 H        1.4150    -6.0310    -1.1500 H     1 <1>   0.1500 
 38 H        6.6860    -0.2570     2.2220 H     1 <1>   0.3700 
 39 H        5.9590    -2.8250     2.9820 H     1 <1>   0.1500 
 40 H       -0.0510    -7.6300    -0.2640 H     1 <1>   0.0800 
 41 H       -0.4730    -7.2310    -1.9340 H     1 <1>   0.0800 
 42 H        7.7350    -3.8170    -1.4890 H     1 <1>   0.1500 
 43 H        6.5430    -5.1070     2.3800 H     1 <1>   0.1500 
 44 H       -2.4090    -8.2420     0.1810 H     1 <1>   0.0800 
 45 H       -1.7790    -9.1990    -1.1380 H     1 <1>   0.0800 
 46 H       -2.8290    -7.8450    -1.4780 H     1 <1>   0.0800 
 47 H        7.9460    -0.4010    -2.7230 H     1 <1>   0.0800 
 48 H        7.3180    -2.0360    -2.8930 H     1 <1>   0.0800 
 49 H        8.8560    -1.7520    -2.0560 H     1 <1>   0.0800 
 50 H        7.8810    -7.8030     0.3080 H     1 <1>   0.0800 
 51 H        6.5170    -7.1160     1.1830 H     1 <1>   0.0800 
 52 H        8.1790    -6.7290     1.6700 H     1 <1>   0.0800 
@<TRIPOS>BOND
  1   1   2  2   
  2   2   3  am  
  3   2   4  1   
  4   3   5  1   
  5   3   6  1   
  6   4   7  1   
  7   4  29  1   
  8   4  30  1   
  9   5   8  ar  
 10   5   9  ar  
 11   6   7  1   
 12   6  31  1   
 13   6  32  1   
 14   7  10  1   
 15   7  33  1   
 16   8  11  ar  
 17   8  34  1   
 18   9  12  ar  
 19   9  35  1   
 20  10  13  2   
 21  10  14  am  
 22  11  15  ar  
 23  11  36  1   
 24  12  15  ar  
 25  12  37  1   
 26  14  16  1   
 27  14  38  1   
 28  15  17  1   
 29  16  18  ar  
 30  16  19  ar  
 31  17  20  1   
 32  18  21  1   
 33  18  22  ar  
 34  19  23  ar  
 35  19  39  1   
 36  20  24  1   
 37  20  40  1   
 38  20  41  1   
 39  21  25  1   
 40  22  26  ar  
 41  22  42  1   
 42  23  26  ar  
 43  23  43  1   
 44  24  44  1   
 45  24  45  1   
 46  24  46  1   
 47  25  47  1   
 48  25  48  1   
 49  25  49  1   
 50  26  27  1   
 51  27  28  1   
 52  28  50  1   
 53  28  51  1   
 54  28  52  1   
@<TRIPOS>SUBSTRUCTURE
  1 ****   6 GROUP 4 **** **** 0

# MOE 2024.06 (io_trps.svl 2023.06)
