@<TRIPOS>MOLECULE
1-(5-Chloro-2-ethoxy-benzenesulfonyl)-piperidine-4-carboxylic acid methylamide
44 45 1 0 0 
SMALL
USER_CHARGES


@<TRIPOS>ATOM
  1 CL       0.1770     0.5650    -1.9910 Cl    1 <1>  -0.1770 
  2 C        0.1990     2.2400    -1.5000 C.ar  1 <1>   0.1770 
  3 C        1.0200     2.6310    -0.4600 C.ar  1 <1>  -0.1500 
  4 C       -0.6050     3.1470    -2.1610 C.ar  1 <1>  -0.1500 
  5 C        1.0560     3.9570    -0.0410 C.ar  1 <1>  -0.0090 
  6 C       -0.5760     4.4720    -1.7670 C.ar  1 <1>  -0.1500 
  7 S        2.1490     4.4420     1.3260 S.o2  1 <1>   1.4470 
  8 C        0.2450     4.8680    -0.7190 C.ar  1 <1>   0.0830 
  9 O        2.4220     3.2520     2.1050 O.2   1 <1>  -0.6500 
 10 O        1.6790     5.6110     2.0400 O.2   1 <1>  -0.6500 
 11 N        3.6110     4.8740     0.5790 N.am  1 <1>  -0.8490 
 12 O        0.2640     6.1740    -0.3910 O.3   1 <1>  -0.3630 
 13 C        4.7040     4.9040     1.5560 C.3   1 <1>   0.1960 
 14 C        3.5050     6.1420    -0.1520 C.3   1 <1>   0.1960 
 15 C       -0.8340     6.6640     0.3440 C.3   1 <1>   0.1200 
 16 C        6.0420     5.1720     0.8640 C.3   1 <1>  -0.1600 
 17 C        4.8070     6.4470    -0.8970 C.3   1 <1>  -0.1600 
 18 C       -0.5400     8.1130     0.7160 C.3   1 <1>  -0.2400 
 19 C        6.0060     6.4830     0.0630 C.3   1 <1>  -0.0190 
 20 C        7.3190     6.7300    -0.6770 C.2   1 <1>   0.5690 
 21 O        7.6880     5.9440    -1.5160 O.2   1 <1>  -0.5700 
 22 N        8.0420     7.8410    -0.3670 N.am  1 <1>  -0.7300 
 23 C        9.3340     8.2190    -0.9950 C.3   1 <1>   0.0600 
 24 H        1.6350     1.8930     0.0270 H     1 <1>   0.1500 
 25 H       -1.2340     2.8200    -2.9690 H     1 <1>   0.1500 
 26 H       -1.1830     5.2010    -2.2750 H     1 <1>   0.1500 
 27 H        4.7680     3.9530     2.0600 H     1 <1>   0.0800 
 28 H        4.5090     5.6620     2.2970 H     1 <1>   0.0800 
 29 H        3.2730     6.9440     0.5310 H     1 <1>   0.0800 
 30 H        2.7130     6.0790    -0.8770 H     1 <1>   0.0800 
 31 H       -0.9490     6.0610     1.2290 H     1 <1>   0.0800 
 32 H       -1.7180     6.5930    -0.2660 H     1 <1>   0.0800 
 33 H        6.2630     4.3490     0.2060 H     1 <1>   0.0800 
 34 H        6.8230     5.2190     1.6020 H     1 <1>   0.0800 
 35 H        4.7160     7.3930    -1.4010 H     1 <1>   0.0800 
 36 H        4.9620     5.6900    -1.6470 H     1 <1>   0.0800 
 37 H        0.3440     8.1600     1.3270 H     1 <1>   0.0800 
 38 H       -1.3630     8.5190     1.2750 H     1 <1>   0.0800 
 39 H       -0.3990     8.7040    -0.1710 H     1 <1>   0.0800 
 40 H        5.8520     7.2910     0.7560 H     1 <1>   0.0800 
 41 H        7.6940     8.4810     0.3480 H     1 <1>   0.3700 
 42 H        9.6220     7.4880    -1.7320 H     1 <1>   0.0800 
 43 H       10.1030     8.2730    -0.2440 H     1 <1>   0.0800 
 44 H        9.2390     9.1770    -1.4770 H     1 <1>   0.0800 
@<TRIPOS>BOND
  1   1   2  1   
  2   2   3  ar  
  3   2   4  ar  
  4   3   5  ar  
  5   3  24  1   
  6   4   6  ar  
  7   4  25  1   
  8   5   7  1   
  9   5   8  ar  
 10   6   8  ar  
 11   6  26  1   
 12   7   9  2   
 13   7  10  2   
 14   7  11  am  
 15   8  12  1   
 16  11  13  1   
 17  11  14  1   
 18  12  15  1   
 19  13  16  1   
 20  13  27  1   
 21  13  28  1   
 22  14  17  1   
 23  14  29  1   
 24  14  30  1   
 25  15  18  1   
 26  15  31  1   
 27  15  32  1   
 28  16  19  1   
 29  16  33  1   
 30  16  34  1   
 31  17  19  1   
 32  17  35  1   
 33  17  36  1   
 34  18  37  1   
 35  18  38  1   
 36  18  39  1   
 37  19  20  1   
 38  19  40  1   
 39  20  21  2   
 40  20  22  am  
 41  22  23  1   
 42  22  41  1   
 43  23  42  1   
 44  23  43  1   
 45  23  44  1   
@<TRIPOS>SUBSTRUCTURE
  1 ****  11 GROUP 4 **** **** 0

# MOE 2024.06 (io_trps.svl 2023.06)
