@<TRIPOS>MOLECULE
1-Allyl-4-hydroxy-6,7-dimethoxy-2-oxo-1,2-dihydro-quinoline-3-carboxylic acid (1
59 61 1 0 0 
SMALL
USER_CHARGES


@<TRIPOS>ATOM
  1 O        0.5350     1.9640     1.0690 O.2   1 <1>  -0.5700 
  2 C       -0.6030     2.1000     0.6080 C.2   1 <1>   0.5350 
  3 N       -1.6080     1.2810     1.1010 N.am  1 <1>  -0.4770 
  4 C       -0.8660     3.0420    -0.4020 C.3   1 <1>  -0.7150 
  5 C       -2.8870     1.2600     0.5130 C.ar  1 <1>   0.1170 
  6 C       -1.3480     0.5260     2.3630 C.3   1 <1>   0.2780 
  7 C       -2.1820     3.1460    -0.8810 C.2   1 <1>   0.3890 
  8 C        0.1390     3.8670    -0.9260 C.2   1 <1>   0.5350 
  9 C       -3.1920     2.2010    -0.4760 C.ar  1 <1>   0.0860 
 10 C       -3.8640     0.3300     0.8710 C.ar  1 <1>  -0.1500 
 11 C       -0.9970    -0.9400     2.1090 C.2   1 <1>  -0.2880 
 12 O       -2.5130     4.0620    -1.6410 O.2   1 <1>  -0.5700 
 13 O        0.3450     4.0160    -2.1260 O.2   1 <1>  -0.5700 
 14 N        1.0450     4.3920    -0.0620 N.am  1 <1>  -0.7300 
 15 C       -4.4690     2.1970    -1.0430 C.ar  1 <1>  -0.1500 
 16 C       -5.1220     0.3210     0.3030 C.ar  1 <1>   0.0830 
 17 C       -0.9900    -1.5890     0.9380 C.2   1 <1>  -0.3000 
 18 C        2.4840     4.5420    -0.4000 C.3   1 <1>   0.1400 
 19 C       -5.4450     1.2870    -0.6660 C.ar  1 <1>   0.0830 
 20 O       -5.9510    -0.6590     0.7600 O.3   1 <1>  -0.3630 
 21 C        3.0330     3.4140    -1.3150 C.3   1 <1>   0.4230 
 22 O       -6.7020     1.3240    -1.2060 O.3   1 <1>  -0.3630 
 23 C       -6.9720    -1.2080    -0.0430 C.3   1 <1>   0.0400 
 24 N        2.5300     2.0670    -0.9180 N.4   1 <1>  -0.9590 
 25 C        4.5490     3.2900    -1.1980 C.3   1 <1>  -0.1600 
 26 C       -7.1250     2.4110    -2.0030 C.3   1 <1>   0.0400 
 27 C        3.5770     1.3300    -0.1730 C.3   1 <1>   0.3430 
 28 C        1.9410     1.3570    -2.0830 C.3   1 <1>   0.3430 
 29 C        4.7590     2.2850    -0.0670 C.3   1 <1>  -0.1600 
 30 C        1.3630     0.0080    -1.6690 C.3   1 <1>  -0.2400 
 31 H       -2.2180     0.5860     2.9920 H     1 <1>   0.0800 
 32 H       -0.5460     0.9890     2.9090 H     1 <1>   0.0800 
 33 H       -3.6540    -0.4250     1.6030 H     1 <1>   0.1500 
 34 H       -0.7380    -1.4380     3.0260 H     1 <1>   0.1500 
 35 H        0.8480     4.0620     0.8880 H     1 <1>   0.3700 
 36 H       -4.6620     2.9390    -1.7930 H     1 <1>   0.1500 
 37 H       -0.7330    -2.6270     0.8270 H     1 <1>   0.1500 
 38 H       -1.2460    -1.1370    -0.0050 H     1 <1>   0.1500 
 39 H        3.0430     4.5690     0.5180 H     1 <1>   0.0800 
 40 H        2.6200     5.4880    -0.8950 H     1 <1>   0.0800 
 41 H        2.7440     3.6400    -2.3290 H     1 <1>   0.0800 
 42 H       -7.2550    -2.1550     0.3770 H     1 <1>   0.0800 
 43 H       -6.5990    -1.3430    -1.0430 H     1 <1>   0.0800 
 44 H       -7.8150    -0.5400    -0.0370 H     1 <1>   0.0800 
 45 H        1.7190     2.2500    -0.2790 H     1 <1>   0.4500 
 46 H        5.0260     4.2350    -1.0070 H     1 <1>   0.0800 
 47 H        4.9330     2.8920    -2.1210 H     1 <1>   0.0800 
 48 H       -6.9860     3.3240    -1.4510 H     1 <1>   0.0800 
 49 H       -8.1670     2.2750    -2.2280 H     1 <1>   0.0800 
 50 H       -6.5530     2.4210    -2.9140 H     1 <1>   0.0800 
 51 H        3.8680     0.4520    -0.7240 H     1 <1>   0.0800 
 52 H        3.2160     1.0370     0.8010 H     1 <1>   0.0800 
 53 H        2.6900     1.2150    -2.8440 H     1 <1>   0.0800 
 54 H        1.1480     1.9570    -2.5000 H     1 <1>   0.0800 
 55 H        4.7210     2.7810     0.8870 H     1 <1>   0.0800 
 56 H        5.6960     1.7640    -0.1510 H     1 <1>   0.0800 
 57 H        2.1280    -0.6750    -1.3540 H     1 <1>   0.0800 
 58 H        0.8540    -0.4250    -2.5100 H     1 <1>   0.0800 
 59 H        0.6440     0.1370    -0.8820 H     1 <1>   0.0800 
@<TRIPOS>BOND
  1   1   2  2   
  2   2   3  am  
  3   2   4  1   
  4   3   5  1   
  5   3   6  1   
  6   4   7  1   
  7   4   8  1   
  8   5   9  ar  
  9   5  10  ar  
 10   6  11  1   
 11   6  31  1   
 12   6  32  1   
 13   7   9  1   
 14   7  12  2   
 15   8  13  2   
 16   8  14  am  
 17   9  15  ar  
 18  10  16  ar  
 19  10  33  1   
 20  11  17  2   
 21  11  34  1   
 22  14  18  1   
 23  14  35  1   
 24  15  19  ar  
 25  15  36  1   
 26  16  19  ar  
 27  16  20  1   
 28  17  37  1   
 29  17  38  1   
 30  18  21  1   
 31  18  39  1   
 32  18  40  1   
 33  19  22  1   
 34  20  23  1   
 35  21  24  1   
 36  21  25  1   
 37  21  41  1   
 38  22  26  1   
 39  23  42  1   
 40  23  43  1   
 41  23  44  1   
 42  24  27  1   
 43  24  28  1   
 44  24  45  1   
 45  25  29  1   
 46  25  46  1   
 47  25  47  1   
 48  26  48  1   
 49  26  49  1   
 50  26  50  1   
 51  27  29  1   
 52  27  51  1   
 53  27  52  1   
 54  28  30  1   
 55  28  53  1   
 56  28  54  1   
 57  29  55  1   
 58  29  56  1   
 59  30  57  1   
 60  30  58  1   
 61  30  59  1   
@<TRIPOS>SUBSTRUCTURE
  1 ****   2 GROUP 4 **** **** 0

# MOE 2024.06 (io_trps.svl 2023.06)
