@<TRIPOS>MOLECULE
2-{[5-(2,3-Dihydro-benzo[1,4]dioxin-6-yl)-2-methyl-furan-3-carbonyl]-amino}-3-me
53 55 1 0 0 
SMALL
USER_CHARGES


@<TRIPOS>ATOM
  1 O        2.6750    -1.3720     1.0310 O.2   1 <1>  -0.5700 
  2 C        1.7010    -1.5860     0.3400 C.2   1 <1>   0.7160 
  3 N        1.3860    -0.7170    -0.6630 N.am  1 <1>  -0.7300 
  4 C        0.8580    -2.7370     0.5650 C.2   1 <1>  -0.0860 
  5 C        2.1650     0.4940    -1.0970 C.3   1 <1>   0.2810 
  6 C        1.1280    -3.9190     1.1860 C.2   1 <1>  -0.0400 
  7 C       -0.4870    -2.8690     0.1670 C.2   1 <1>  -0.1500 
  8 C        3.7040     0.3570    -1.0120 C.2   1 <1>   0.6590 
  9 C        1.5770     1.7790    -0.4490 C.3   1 <1>  -0.0800 
 10 O        0.0790    -4.7020     1.1760 O.3   1 <1>  -0.2800 
 11 C        2.3880    -4.4420     1.8460 C.3   1 <1>  -0.0600 
 12 C       -0.9220    -4.0920     0.5620 C.2   1 <1>   0.0870 
 13 O        4.3060    -0.3110    -1.8180 O.2   1 <1>  -0.5700 
 14 O        4.3430     1.0270    -0.0570 O.3   1 <1>  -0.4300 
 15 C        1.4750     1.7270     1.0880 C.3   1 <1>  -0.2400 
 16 C        0.1900     2.1090    -1.0260 C.3   1 <1>  -0.2400 
 17 C       -2.2030    -4.7480     0.4190 C.ar  1 <1>   0.0530 
 18 C        5.7310     0.9010     0.1320 C.3   1 <1>   0.1200 
 19 C       -3.2920    -4.0840    -0.1480 C.ar  1 <1>  -0.1500 
 20 C       -2.3980    -6.0650     0.8410 C.ar  1 <1>  -0.1500 
 21 C        6.1270     1.7850     1.3090 C.3   1 <1>  -0.2400 
 22 C       -4.5180    -4.7070    -0.2900 C.ar  1 <1>   0.0830 
 23 C       -3.6190    -6.7010     0.6990 C.ar  1 <1>  -0.1500 
 24 O       -5.5480    -4.0090    -0.8330 O.3   1 <1>  -0.3620 
 25 C       -4.6830    -6.0290     0.1270 C.ar  1 <1>   0.0830 
 26 C       -6.8450    -4.5510    -0.6650 C.3   1 <1>   0.1200 
 27 O       -5.8670    -6.6710    -0.0230 O.3   1 <1>  -0.3630 
 28 C       -6.8200    -6.0710    -0.8800 C.3   1 <1>   0.1200 
 29 H        0.5920    -0.9510    -1.2540 H     1 <1>   0.3700 
 30 H        1.9900     0.5890    -2.1530 H     1 <1>   0.0800 
 31 H       -1.0530    -2.1170    -0.3500 H     1 <1>   0.1500 
 32 H        2.2320     2.5960    -0.7060 H     1 <1>   0.0800 
 33 H        3.1960    -3.7410     1.7530 H     1 <1>   0.0800 
 34 H        2.6800    -5.3670     1.3840 H     1 <1>   0.0800 
 35 H        2.2020    -4.6180     2.8900 H     1 <1>   0.0800 
 36 H        0.7600     0.9870     1.4020 H     1 <1>   0.0800 
 37 H        1.1630     2.6820     1.4730 H     1 <1>   0.0800 
 38 H        2.4230     1.4840     1.5320 H     1 <1>   0.0800 
 39 H       -0.5220     1.3430    -0.7750 H     1 <1>   0.0800 
 40 H        0.2360     2.2020    -2.0970 H     1 <1>   0.0800 
 41 H       -0.1650     3.0430    -0.6250 H     1 <1>   0.0800 
 42 H        6.2290     1.2080    -0.7720 H     1 <1>   0.0800 
 43 H        5.9510    -0.1350     0.3350 H     1 <1>   0.0800 
 44 H       -3.1950    -3.0700    -0.4810 H     1 <1>   0.1500 
 45 H       -1.5780    -6.6000     1.2870 H     1 <1>   0.1500 
 46 H        5.8890     2.8120     1.0990 H     1 <1>   0.0800 
 47 H        7.1850     1.7060     1.4830 H     1 <1>   0.0800 
 48 H        5.6090     1.4690     2.1970 H     1 <1>   0.0800 
 49 H       -3.7520    -7.7160     1.0270 H     1 <1>   0.1500 
 50 H       -7.4980    -4.0750    -1.3730 H     1 <1>   0.0800 
 51 H       -7.1770    -4.3210     0.3320 H     1 <1>   0.0800 
 52 H       -6.5480    -6.3000    -1.8950 H     1 <1>   0.0800 
 53 H       -7.7800    -6.5040    -0.6640 H     1 <1>   0.0800 
@<TRIPOS>BOND
  1   1   2  2   
  2   2   3  am  
  3   2   4  1   
  4   3   5  1   
  5   3  29  1   
  6   4   6  2   
  7   4   7  1   
  8   5   8  1   
  9   5   9  1   
 10   5  30  1   
 11   6  10  1   
 12   6  11  1   
 13   7  12  2   
 14   7  31  1   
 15   8  13  2   
 16   8  14  1   
 17   9  15  1   
 18   9  16  1   
 19   9  32  1   
 20  10  12  1   
 21  11  33  1   
 22  11  34  1   
 23  11  35  1   
 24  12  17  1   
 25  14  18  1   
 26  15  36  1   
 27  15  37  1   
 28  15  38  1   
 29  16  39  1   
 30  16  40  1   
 31  16  41  1   
 32  17  19  ar  
 33  17  20  ar  
 34  18  21  1   
 35  18  42  1   
 36  18  43  1   
 37  19  22  ar  
 38  19  44  1   
 39  20  23  ar  
 40  20  45  1   
 41  21  46  1   
 42  21  47  1   
 43  21  48  1   
 44  22  24  1   
 45  22  25  ar  
 46  23  25  ar  
 47  23  49  1   
 48  24  26  1   
 49  25  27  1   
 50  26  28  1   
 51  26  50  1   
 52  26  51  1   
 53  27  28  1   
 54  28  52  1   
 55  28  53  1   
@<TRIPOS>SUBSTRUCTURE
  1 ****   7 GROUP 4 **** **** 0

# MOE 2024.06 (io_trps.svl 2023.06)
