@<TRIPOS>MOLECULE
[3-(3,4-Dimethoxy-phenyl)-5,7-dimethyl-pyrazolo[1,5-a]pyrimidin-6-yl]-acetic aci
50 52 1 0 0 
SMALL
USER_CHARGES


@<TRIPOS>ATOM
  1 O        1.3370     1.5100     1.9610 O.2   1 <1>  -0.5700 
  2 C        1.8070     1.1000     0.9360 C.2   1 <1>   0.6590 
  3 O        2.6240     0.0500     0.9610 O.3   1 <1>  -0.4300 
  4 C        1.5010     1.7720    -0.4010 C.3   1 <1>   0.0390 
  5 C        3.2770    -0.5240    -0.1470 C.3   1 <1>   0.1200 
  6 C        0.4540     2.8930    -0.3080 C.2   1 <1>  -0.1240 
  7 C        4.1440    -1.6680     0.3660 C.3   1 <1>  -0.2400 
  8 C        0.8750     4.2110     0.0820 C.2   1 <1>   0.3750 
  9 C       -0.8680     2.6750    -0.5890 C.2   1 <1>  -0.1690 
 10 N        0.0770     5.2260     0.1280 N.2   1 <1>  -0.5760 
 11 C        2.3170     4.4940     0.4670 C.3   1 <1>  -0.1790 
 12 N       -1.7240     3.7690    -0.5310 N.pl3 1 <1>   0.6010 
 13 C       -1.5210     1.3380    -0.9540 C.3   1 <1>  -0.1020 
 14 C       -1.2420     5.0070    -0.1880 C.2   1 <1>  -0.0260 
 15 N       -3.0470     3.8150    -0.8090 N.2   1 <1>  -0.7070 
 16 C       -2.3060     5.8690    -0.2300 C.2   1 <1>  -0.0540 
 17 C       -3.3690     5.0600    -0.6230 C.2   1 <1>   0.1390 
 18 C       -2.3650     7.2850     0.0540 C.ar  1 <1>   0.0540 
 19 C       -1.2880     8.1240    -0.2200 C.ar  1 <1>  -0.1500 
 20 C       -3.5040     7.8600     0.6090 C.ar  1 <1>  -0.1500 
 21 C       -1.3240     9.4890     0.0460 C.ar  1 <1>   0.0820 
 22 C       -3.5680     9.2160     0.8640 C.ar  1 <1>  -0.1500 
 23 O       -0.2330    10.2750    -0.1930 O.3   1 <1>  -0.3630 
 24 C       -2.4980    10.0470     0.5810 C.ar  1 <1>   0.0820 
 25 C        1.0590     9.7150    -0.2950 C.3   1 <1>   0.0400 
 26 O       -2.7070    11.3650     0.8690 O.3   1 <1>  -0.3630 
 27 C       -2.0270    12.3900     0.1800 C.3   1 <1>   0.0400 
 28 H        1.1720     1.0240    -1.0920 H     1 <1>   0.0800 
 29 H        2.4160     2.1610    -0.8040 H     1 <1>   0.0800 
 30 H        3.8860     0.2270    -0.6200 H     1 <1>   0.0800 
 31 H        2.5350    -0.8940    -0.8340 H     1 <1>   0.0800 
 32 H        4.8750    -1.2970     1.0630 H     1 <1>   0.0800 
 33 H        4.6600    -2.1340    -0.4540 H     1 <1>   0.0800 
 34 H        3.5330    -2.4090     0.8510 H     1 <1>   0.0800 
 35 H        2.9600     4.3880    -0.3860 H     1 <1>   0.0800 
 36 H        2.6320     3.8320     1.2520 H     1 <1>   0.0800 
 37 H        2.4100     5.5020     0.8320 H     1 <1>   0.0800 
 38 H       -1.8000     1.3390    -1.9930 H     1 <1>   0.0800 
 39 H       -2.4140     1.2000    -0.3690 H     1 <1>   0.0800 
 40 H       -0.8890     0.4940    -0.7620 H     1 <1>   0.0800 
 41 H       -4.3720     5.4240    -0.7690 H     1 <1>   0.1500 
 42 H       -0.4170     7.6730    -0.6510 H     1 <1>   0.1500 
 43 H       -4.3490     7.2410     0.8500 H     1 <1>   0.1500 
 44 H       -4.4570     9.6440     1.2900 H     1 <1>   0.1500 
 45 H        1.7730    10.5180    -0.2810 H     1 <1>   0.0800 
 46 H        1.1350     9.1770    -1.2220 H     1 <1>   0.0800 
 47 H        1.2250     9.0630     0.5450 H     1 <1>   0.0800 
 48 H       -2.5610    13.3090     0.3350 H     1 <1>   0.0800 
 49 H       -2.0000    12.1500    -0.8690 H     1 <1>   0.0800 
 50 H       -1.0330    12.4760     0.5790 H     1 <1>   0.0800 
@<TRIPOS>BOND
  1   1   2  2   
  2   2   3  1   
  3   2   4  1   
  4   3   5  1   
  5   4   6  1   
  6   4  28  1   
  7   4  29  1   
  8   5   7  1   
  9   5  30  1   
 10   5  31  1   
 11   6   8  1   
 12   6   9  2   
 13   7  32  1   
 14   7  33  1   
 15   7  34  1   
 16   8  10  2   
 17   8  11  1   
 18   9  12  1   
 19   9  13  1   
 20  10  14  1   
 21  11  35  1   
 22  11  36  1   
 23  11  37  1   
 24  12  14  1   
 25  12  15  1   
 26  13  38  1   
 27  13  39  1   
 28  13  40  1   
 29  14  16  2   
 30  15  17  2   
 31  16  17  1   
 32  16  18  1   
 33  17  41  1   
 34  18  19  ar  
 35  18  20  ar  
 36  19  21  ar  
 37  19  42  1   
 38  20  22  ar  
 39  20  43  1   
 40  21  23  1   
 41  21  24  ar  
 42  22  24  ar  
 43  22  44  1   
 44  23  25  1   
 45  24  26  1   
 46  25  45  1   
 47  25  46  1   
 48  25  47  1   
 49  26  27  1   
 50  27  48  1   
 51  27  49  1   
 52  27  50  1   
@<TRIPOS>SUBSTRUCTURE
  1 ****  10 GROUP 4 **** **** 0

# MOE 2024.06 (io_trps.svl 2023.06)
