@<TRIPOS>MOLECULE
N-[3-Chloro-2-(4-ethyl-piperazin-1-yl)-phenyl]-3,4,5-trimethoxy-benzamide
59 61 1 0 0 
SMALL
USER_CHARGES


@<TRIPOS>ATOM
  1 CL       0.3570     0.3520     0.3720 Cl    1 <1>  -0.1770 
  2 C        1.8880    -0.5110     0.3950 C.ar  1 <1>   0.1770 
  3 C        3.0850     0.1890     0.2210 C.ar  1 <1>   0.1000 
  4 C        1.8430    -1.8790     0.5800 C.ar  1 <1>  -0.1500 
  5 N        3.0390     1.5890     0.0400 N.pl3 1 <1>  -0.8380 
  6 C        4.2830    -0.5590     0.2410 C.ar  1 <1>   0.1170 
  7 C        3.0220    -2.5970     0.5960 C.ar  1 <1>  -0.1500 
  8 C        3.7380     2.2640    -1.0840 C.3   1 <1>   0.2090 
  9 C        2.7990     2.4340     1.2450 C.3   1 <1>   0.2090 
 10 N        5.5650     0.0000     0.0600 N.am  1 <1>  -0.5470 
 11 C        4.2250    -1.9350     0.4270 C.ar  1 <1>  -0.1500 
 12 C        2.9990     3.5680    -1.4540 C.3   1 <1>   0.3430 
 13 C        2.0580     3.7220     0.8400 C.3   1 <1>   0.3430 
 14 C        6.2630     0.8380     0.8940 C.2   1 <1>   0.5440 
 15 N        2.7720     4.4740    -0.2610 N.4   1 <1>  -0.9590 
 16 O        5.7050     1.3180     1.8620 O.2   1 <1>  -0.5700 
 17 C        7.6470     1.1770     0.6030 C.ar  1 <1>   0.0860 
 18 C        2.0290     5.7080    -0.6170 C.3   1 <1>   0.3430 
 19 C        8.2170     2.3310     1.1410 C.ar  1 <1>  -0.1500 
 20 C        8.4530     0.3850    -0.2200 C.ar  1 <1>  -0.1500 
 21 C        2.9250     6.6310    -1.4350 C.3   1 <1>  -0.2400 
 22 C        9.5210     2.7110     0.8530 C.ar  1 <1>   0.0830 
 23 C        9.7580     0.7460    -0.5310 C.ar  1 <1>   0.0830 
 24 O       10.0860     3.8370     1.3760 O.3   1 <1>  -0.3630 
 25 C       10.2880     1.9220    -0.0020 C.ar  1 <1>   0.0830 
 26 O       10.5600    -0.0090    -1.3350 O.3   1 <1>  -0.3630 
 27 C        9.5160     4.5060     2.4800 C.3   1 <1>   0.0400 
 28 O       11.5470     2.3020    -0.3370 O.3   1 <1>  -0.3630 
 29 C       10.1360    -1.2290    -1.9020 C.3   1 <1>   0.0400 
 30 C       12.5610     1.9330     0.5660 C.3   1 <1>   0.0400 
 31 H        0.8960    -2.3710     0.7090 H     1 <1>   0.1500 
 32 H        3.0040    -3.6640     0.7420 H     1 <1>   0.1500 
 33 H        3.7660     1.6060    -1.9360 H     1 <1>   0.0800 
 34 H        4.7500     2.4910    -0.7980 H     1 <1>   0.0800 
 35 H        3.7340     2.6890     1.7100 H     1 <1>   0.0800 
 36 H        2.2130     1.8870     1.9640 H     1 <1>   0.0800 
 37 H        6.0960    -0.4090    -0.7050 H     1 <1>   0.3700 
 38 H        5.1370    -2.5050     0.4500 H     1 <1>   0.1500 
 39 H        2.0490     3.2980    -1.8840 H     1 <1>   0.0800 
 40 H        3.5680     4.0860    -2.2080 H     1 <1>   0.0800 
 41 H        1.9530     4.3510     1.7090 H     1 <1>   0.0800 
 42 H        1.0710     3.4450     0.5090 H     1 <1>   0.0800 
 43 H        3.6950     4.7380     0.1060 H     1 <1>   0.4500 
 44 H        1.7290     6.2220     0.2830 H     1 <1>   0.0800 
 45 H        1.1390     5.4600    -1.1750 H     1 <1>   0.0800 
 46 H        7.6100     2.9320     1.7920 H     1 <1>   0.1500 
 47 H        8.0520    -0.5270    -0.6140 H     1 <1>   0.1500 
 48 H        3.8260     6.8670    -0.8970 H     1 <1>   0.0800 
 49 H        2.4010     7.5520    -1.6210 H     1 <1>   0.0800 
 50 H        3.1710     6.2000    -2.3880 H     1 <1>   0.0800 
 51 H       10.2040     5.2700     2.7950 H     1 <1>   0.0800 
 52 H        9.3630     3.8000     3.2770 H     1 <1>   0.0800 
 53 H        8.5890     4.9560     2.1760 H     1 <1>   0.0800 
 54 H       10.9510    -1.6240    -2.4820 H     1 <1>   0.0800 
 55 H        9.2930    -1.0430    -2.5420 H     1 <1>   0.0800 
 56 H        9.8860    -1.9140    -1.1120 H     1 <1>   0.0800 
 57 H       13.5000     2.2830     0.1760 H     1 <1>   0.0800 
 58 H       12.5730     0.8620     0.6540 H     1 <1>   0.0800 
 59 H       12.3630     2.3910     1.5190 H     1 <1>   0.0800 
@<TRIPOS>BOND
  1   1   2  1   
  2   2   3  ar  
  3   2   4  ar  
  4   3   5  1   
  5   3   6  ar  
  6   4   7  ar  
  7   4  31  1   
  8   5   8  1   
  9   5   9  1   
 10   6  10  1   
 11   6  11  ar  
 12   7  11  ar  
 13   7  32  1   
 14   8  12  1   
 15   8  33  1   
 16   8  34  1   
 17   9  13  1   
 18   9  35  1   
 19   9  36  1   
 20  10  14  am  
 21  10  37  1   
 22  11  38  1   
 23  12  15  1   
 24  12  39  1   
 25  12  40  1   
 26  13  15  1   
 27  13  41  1   
 28  13  42  1   
 29  14  16  2   
 30  14  17  1   
 31  15  18  1   
 32  15  43  1   
 33  17  19  ar  
 34  17  20  ar  
 35  18  21  1   
 36  18  44  1   
 37  18  45  1   
 38  19  22  ar  
 39  19  46  1   
 40  20  23  ar  
 41  20  47  1   
 42  21  48  1   
 43  21  49  1   
 44  21  50  1   
 45  22  24  1   
 46  22  25  ar  
 47  23  25  ar  
 48  23  26  1   
 49  24  27  1   
 50  25  28  1   
 51  26  29  1   
 52  27  51  1   
 53  27  52  1   
 54  27  53  1   
 55  28  30  1   
 56  29  54  1   
 57  29  55  1   
 58  29  56  1   
 59  30  57  1   
 60  30  58  1   
 61  30  59  1   
@<TRIPOS>SUBSTRUCTURE
  1 ****  14 GROUP 4 **** **** 0

# MOE 2024.06 (io_trps.svl 2023.06)
