@<TRIPOS>MOLECULE
2-(3-Cyano-4,6-dimethyl-2-oxo-2H-pyridin-1-yl)-acetamide
26 26 1 0 0 
SMALL
USER_CHARGES


@<TRIPOS>ATOM
  1 O        0.5290    -0.2310     1.4530 O.2   1 <1>  -0.5700 
  2 C        0.6710    -1.3720     1.0160 C.2   1 <1>   0.6160 
  3 N        1.8990    -1.7320     0.4720 N.am  1 <1>  -0.4690 
  4 C       -0.3960    -2.3240     1.0320 C.2   1 <1>   0.0790 
  5 C        2.0530    -2.9680    -0.1350 C.2   1 <1>  -0.0290 
  6 C        3.0200    -0.7250     0.5320 C.3   1 <1>   0.2010 
  7 C       -1.6130    -1.9110     1.6570 C.1   1 <1>   0.4920 
  8 C       -0.2180    -3.5580     0.4610 C.2   1 <1>  -0.1380 
  9 C        1.0260    -3.8600    -0.1380 C.2   1 <1>  -0.1500 
 10 C        3.3710    -3.3210    -0.8130 C.3   1 <1>  -0.1020 
 11 C        2.9580     0.2910    -0.6050 C.2   1 <1>   0.5690 
 12 N       -2.6090    -1.6350     2.1410 N.1   1 <1>  -0.5570 
 13 C       -1.2780    -4.6550     0.4120 C.3   1 <1>  -0.1020 
 14 O        3.8170     0.2990    -1.4500 O.2   1 <1>  -0.5700 
 15 N        1.9480     1.1820    -0.6520 N.am  1 <1>  -0.8000 
 16 H        3.9730    -1.2170     0.5040 H     1 <1>   0.0800 
 17 H        2.9760    -0.1940     1.4650 H     1 <1>   0.0800 
 18 H        1.1390    -4.8240    -0.6040 H     1 <1>   0.1500 
 19 H        4.1610    -3.3830    -0.0880 H     1 <1>   0.0800 
 20 H        3.6220    -2.5790    -1.5510 H     1 <1>   0.0800 
 21 H        3.3020    -4.2710    -1.3110 H     1 <1>   0.0800 
 22 H       -0.9110    -5.5390     0.9030 H     1 <1>   0.0800 
 23 H       -1.5010    -4.9010    -0.6110 H     1 <1>   0.0800 
 24 H       -2.1960    -4.3660     0.8920 H     1 <1>   0.0800 
 25 H        1.8800     1.8570    -1.4130 H     1 <1>   0.3700 
 26 H        1.1800     1.1570     0.0310 H     1 <1>   0.3700 
@<TRIPOS>BOND
  1   1   2  2   
  2   2   3  am  
  3   2   4  1   
  4   3   5  1   
  5   3   6  1   
  6   4   7  1   
  7   4   8  2   
  8   5   9  2   
  9   5  10  1   
 10   6  11  1   
 11   6  16  1   
 12   6  17  1   
 13   7  12  3   
 14   8   9  1   
 15   8  13  1   
 16   9  18  1   
 17  10  19  1   
 18  10  20  1   
 19  10  21  1   
 20  11  14  2   
 21  11  15  am  
 22  13  22  1   
 23  13  23  1   
 24  13  24  1   
 25  15  25  1   
 26  15  26  1   
@<TRIPOS>SUBSTRUCTURE
  1 ****   2 GROUP 4 **** **** 0

# MOE 2024.06 (io_trps.svl 2023.06)
