@<TRIPOS>MOLECULE
6-(2-Ethoxy-phenoxymethyl)-3-trifluoromethyl-[1,2,4]triazolo[3,4-b][1,3,4]thiadi
34 36 1 0 0 
SMALL
USER_CHARGES


@<TRIPOS>ATOM
  1 S       -0.2590    -0.0730     0.3810 S.3   1 <1>  -0.1970 
  2 C        0.5130     1.4980     0.3600 C.2   1 <1>   0.2420 
  3 C       -1.8290     0.7490     0.2630 C.2   1 <1>   0.5300 
  4 N        1.7190     1.9360     0.4080 N.2   1 <1>  -0.3380 
  5 N       -0.4180     2.4320     0.2720 N.pl3 1 <1>   0.5050 
  6 N       -1.7480     2.0210     0.2170 N.2   1 <1>  -0.6520 
  7 C       -3.0370    -0.1800     0.2350 C.3   1 <1>   0.1810 
  8 N        1.5910     3.2740     0.3470 N.2   1 <1>  -0.3380 
  9 C        0.3150     3.5450     0.2680 C.2   1 <1>   0.0060 
 10 O       -4.2390     0.5550     0.1430 O.3   1 <1>  -0.3630 
 11 C       -0.3830     4.8870     0.1760 C.3   1 <1>   1.2000 
 12 C       -5.4580    -0.0550     0.1040 C.ar  1 <1>   0.0830 
 13 F        0.4580     5.9140     0.1810 F     1 <1>  -0.3400 
 14 F       -1.1020     5.0070    -0.9330 F     1 <1>  -0.3400 
 15 F       -1.2170     5.0920     1.1890 F     1 <1>  -0.3400 
 16 C       -6.5910     0.7590     0.0150 C.ar  1 <1>   0.0820 
 17 C       -5.6070    -1.4400     0.1480 C.ar  1 <1>  -0.1500 
 18 O       -6.4030     2.1090    -0.0260 O.3   1 <1>  -0.3630 
 19 C       -7.8540     0.1750    -0.0280 C.ar  1 <1>  -0.1500 
 20 C       -6.8690    -2.0070     0.1040 C.ar  1 <1>  -0.1500 
 21 C       -7.4820     3.0080    -0.1160 C.3   1 <1>   0.1200 
 22 C       -7.9900    -1.2010     0.0170 C.ar  1 <1>  -0.1500 
 23 C       -6.9130     4.4230    -0.1400 C.3   1 <1>  -0.2400 
 24 H       -3.0680    -0.7590     1.1400 H     1 <1>   0.0800 
 25 H       -2.9740    -0.8270    -0.6200 H     1 <1>   0.0800 
 26 H       -4.7630    -2.0970     0.2160 H     1 <1>   0.1500 
 27 H       -8.7430     0.7720    -0.0960 H     1 <1>   0.1500 
 28 H       -6.9810    -3.0770     0.1390 H     1 <1>   0.1500 
 29 H       -8.1160     2.8680     0.7430 H     1 <1>   0.0800 
 30 H       -8.0240     2.8010    -1.0220 H     1 <1>   0.0800 
 31 H       -8.9690    -1.6460    -0.0170 H     1 <1>   0.1500 
 32 H       -6.3570     4.6110     0.7610 H     1 <1>   0.0800 
 33 H       -7.7120     5.1380    -0.2080 H     1 <1>   0.0800 
 34 H       -6.2660     4.5450    -0.9910 H     1 <1>   0.0800 
@<TRIPOS>BOND
  1   1   2  1   
  2   1   3  1   
  3   2   4  2   
  4   2   5  1   
  5   3   6  2   
  6   3   7  1   
  7   4   8  1   
  8   5   6  1   
  9   5   9  1   
 10   7  10  1   
 11   7  24  1   
 12   7  25  1   
 13   8   9  2   
 14   9  11  1   
 15  10  12  1   
 16  11  13  1   
 17  11  14  1   
 18  11  15  1   
 19  12  16  ar  
 20  12  17  ar  
 21  16  18  1   
 22  16  19  ar  
 23  17  20  ar  
 24  17  26  1   
 25  18  21  1   
 26  19  22  ar  
 27  19  27  1   
 28  20  22  ar  
 29  20  28  1   
 30  21  23  1   
 31  21  29  1   
 32  21  30  1   
 33  22  31  1   
 34  23  32  1   
 35  23  33  1   
 36  23  34  1   
@<TRIPOS>SUBSTRUCTURE
  1 ****   6 GROUP 4 **** **** 0

# MOE 2024.06 (io_trps.svl 2023.06)
