@<TRIPOS>MOLECULE
4-Cyano-2-fluoro-N-[2-(4-isobutyryl-piperazin-1-yl)-phenyl]-benzamide
52 54 1 0 0 
SMALL
USER_CHARGES


@<TRIPOS>ATOM
  1 F        2.0480    -3.9670     0.0870 F     1 <1>  -0.1900 
  2 C        1.1440    -3.2190     0.6570 C.ar  1 <1>   0.1900 
  3 C        1.3350    -1.8370     0.7550 C.ar  1 <1>   0.0860 
  4 C        0.0220    -3.8710     1.1310 C.ar  1 <1>  -0.1500 
  5 C        2.5080    -1.1260     0.2720 C.2   1 <1>   0.5440 
  6 C        0.2930    -1.1370     1.3690 C.ar  1 <1>  -0.1500 
  7 C       -0.9960    -3.1510     1.7410 C.ar  1 <1>   0.0730 
  8 O        2.4230     0.0620     0.0280 O.2   1 <1>  -0.5700 
  9 N        3.7090    -1.7660     0.1090 N.am  1 <1>  -0.5470 
 10 C       -0.8400    -1.7730     1.8490 C.ar  1 <1>  -0.1500 
 11 C       -2.1710    -3.8060     2.2410 C.1   1 <1>   0.4840 
 12 C        5.0050    -1.3730    -0.2650 C.ar  1 <1>   0.1170 
 13 N       -3.1010    -4.3310     2.6390 N.1   1 <1>  -0.5570 
 14 C        5.9460    -2.4040    -0.3990 C.ar  1 <1>   0.1000 
 15 C        5.3940    -0.0600    -0.4930 C.ar  1 <1>  -0.1500 
 16 N        5.5610    -3.7380    -0.1730 N.pl3 1 <1>  -0.8380 
 17 C        7.2500    -2.0910    -0.7600 C.ar  1 <1>  -0.1500 
 18 C        6.6970     0.2370    -0.8530 C.ar  1 <1>  -0.1500 
 19 C        5.5260    -4.6120    -1.3830 C.3   1 <1>   0.2090 
 20 C        6.2090    -4.4190     0.9890 C.3   1 <1>   0.2090 
 21 C        7.6270    -0.7780    -0.9860 C.ar  1 <1>  -0.1500 
 22 C        4.8200    -5.9480    -1.0850 C.3   1 <1>   0.1400 
 23 C        5.4910    -5.7380     1.3140 C.3   1 <1>   0.1400 
 24 N        5.4200    -6.6310     0.1090 N.am  1 <1>  -0.6600 
 25 C        5.9580    -7.8950     0.1370 C.2   1 <1>   0.5690 
 26 O        6.5690    -8.2860     1.1060 O.2   1 <1>  -0.5700 
 27 C        5.8160    -8.8530    -1.0610 C.3   1 <1>  -0.0190 
 28 C        5.7820   -10.3340    -0.6400 C.3   1 <1>  -0.2400 
 29 C        6.9490    -8.6390    -2.0790 C.3   1 <1>  -0.2400 
 30 H       -0.0580    -4.9390     1.0220 H     1 <1>   0.1500 
 31 H        0.3760    -0.0660     1.4710 H     1 <1>   0.1500 
 32 H        3.7020    -2.7850     0.2320 H     1 <1>   0.3700 
 33 H       -1.6160    -1.1870     2.3160 H     1 <1>   0.1500 
 34 H        4.6850     0.7410    -0.3920 H     1 <1>   0.1500 
 35 H        7.9730    -2.8770    -0.8640 H     1 <1>   0.1500 
 36 H        6.9840     1.2600    -1.0280 H     1 <1>   0.1500 
 37 H        6.5300    -4.8070    -1.7160 H     1 <1>   0.0800 
 38 H        5.0050    -4.1000    -2.1740 H     1 <1>   0.0800 
 39 H        6.1750    -3.7700     1.8470 H     1 <1>   0.0800 
 40 H        7.2420    -4.6240     0.7650 H     1 <1>   0.0800 
 41 H        8.6400    -0.5480    -1.2650 H     1 <1>   0.1500 
 42 H        4.8830    -6.5640    -1.9610 H     1 <1>   0.0800 
 43 H        3.7800    -5.7560    -0.8910 H     1 <1>   0.0800 
 44 H        4.4930    -5.5200     1.6470 H     1 <1>   0.0800 
 45 H        6.0060    -6.2250     2.1230 H     1 <1>   0.0800 
 46 H        4.8750    -8.6560    -1.5400 H     1 <1>   0.0800 
 47 H        6.7130   -10.6160    -0.1790 H     1 <1>   0.0800 
 48 H        5.6130   -10.9680    -1.4920 H     1 <1>   0.0800 
 49 H        4.9910   -10.4960     0.0710 H     1 <1>   0.0800 
 50 H        7.8980    -8.8640    -1.6250 H     1 <1>   0.0800 
 51 H        6.9700    -7.6190    -2.4160 H     1 <1>   0.0800 
 52 H        6.8140    -9.2800    -2.9330 H     1 <1>   0.0800 
@<TRIPOS>BOND
  1   1   2  1   
  2   2   3  ar  
  3   2   4  ar  
  4   3   5  1   
  5   3   6  ar  
  6   4   7  ar  
  7   4  30  1   
  8   5   8  2   
  9   5   9  am  
 10   6  10  ar  
 11   6  31  1   
 12   7  10  ar  
 13   7  11  1   
 14   9  12  1   
 15   9  32  1   
 16  10  33  1   
 17  11  13  3   
 18  12  14  ar  
 19  12  15  ar  
 20  14  16  1   
 21  14  17  ar  
 22  15  18  ar  
 23  15  34  1   
 24  16  19  1   
 25  16  20  1   
 26  17  21  ar  
 27  17  35  1   
 28  18  21  ar  
 29  18  36  1   
 30  19  22  1   
 31  19  37  1   
 32  19  38  1   
 33  20  23  1   
 34  20  39  1   
 35  20  40  1   
 36  21  41  1   
 37  22  24  1   
 38  22  42  1   
 39  22  43  1   
 40  23  24  1   
 41  23  44  1   
 42  23  45  1   
 43  24  25  am  
 44  25  26  2   
 45  25  27  1   
 46  27  28  1   
 47  27  29  1   
 48  27  46  1   
 49  28  47  1   
 50  28  48  1   
 51  28  49  1   
 52  29  50  1   
 53  29  51  1   
 54  29  52  1   
@<TRIPOS>SUBSTRUCTURE
  1 ****   1 GROUP 4 **** **** 0

# MOE 2024.06 (io_trps.svl 2023.06)
