@<TRIPOS>MOLECULE
N-[3-(4-tert-Butyl-phenyl)-[1,2,4]oxadiazol-5-ylmethyl]-3,4-dimethoxy-benzamide
54 56 1 0 0 
SMALL
USER_CHARGES


@<TRIPOS>ATOM
  1 O       -2.1950    -0.8720     1.7800 O.2   1 <1>  -0.5700 
  2 C       -3.2240    -0.3650     1.3910 C.2   1 <1>   0.5440 
  3 N       -4.3510    -1.1050     1.5630 N.am  1 <1>  -0.7300 
  4 C       -3.2220     0.9430     0.7650 C.ar  1 <1>   0.0860 
  5 C       -5.5990    -1.0360     0.7560 C.3   1 <1>   0.3200 
  6 C       -4.2120     1.8880     1.0300 C.ar  1 <1>  -0.1500 
  7 C       -2.2190     1.3080    -0.1290 C.ar  1 <1>  -0.1500 
  8 C       -5.9240    -2.3780     0.1180 C.2   1 <1>   0.2980 
  9 C       -4.2300     3.1290     0.4210 C.ar  1 <1>   0.0830 
 10 C       -2.2160     2.5420    -0.7520 C.ar  1 <1>  -0.1500 
 11 O       -5.1680    -2.8030    -0.8600 O.3   1 <1>  -0.0190 
 12 N       -6.8790    -3.1500     0.4440 N.2   1 <1>  -0.5650 
 13 O       -5.2730     3.9260     0.7880 O.3   1 <1>  -0.3630 
 14 C       -3.2250     3.4690    -0.4990 C.ar  1 <1>   0.0830 
 15 N       -5.6870    -3.9440    -1.1870 N.2   1 <1>  -0.4100 
 16 C       -6.6970    -4.1560    -0.4190 C.2   1 <1>   0.4620 
 17 C       -5.1260     5.3270     0.8670 C.3   1 <1>   0.0400 
 18 O       -3.2580     4.6730    -1.1340 O.3   1 <1>  -0.3630 
 19 C       -7.5580    -5.3280    -0.4530 C.ar  1 <1>   0.0540 
 20 C       -2.3020     5.0520    -2.1000 C.3   1 <1>   0.0400 
 21 C       -7.3470    -6.3580    -1.3680 C.ar  1 <1>  -0.1500 
 22 C       -8.6320    -5.4810     0.4210 C.ar  1 <1>  -0.1500 
 23 C       -8.1600    -7.4760    -1.4100 C.ar  1 <1>  -0.1500 
 24 C       -9.4470    -6.5970     0.3820 C.ar  1 <1>  -0.1500 
 25 C       -9.2320    -7.6210    -0.5340 C.ar  1 <1>  -0.1430 
 26 C      -10.1690    -8.8480    -0.5400 C.3   1 <1>   0.1430 
 27 C       -9.7970    -9.8890    -1.6100 C.3   1 <1>  -0.2400 
 28 C      -11.6100    -8.3930    -0.8170 C.3   1 <1>  -0.2400 
 29 C      -10.1090    -9.5470     0.8270 C.3   1 <1>  -0.2400 
 30 H       -4.1990    -1.9980     2.0390 H     1 <1>   0.3700 
 31 H       -5.5040    -0.2990    -0.0210 H     1 <1>   0.0800 
 32 H       -6.4130    -0.7500     1.3990 H     1 <1>   0.0800 
 33 H       -4.9850     1.6560     1.7380 H     1 <1>   0.1500 
 34 H       -1.4290     0.6040    -0.3330 H     1 <1>   0.1500 
 35 H       -1.4170     2.7580    -1.4350 H     1 <1>   0.1500 
 36 H       -5.9010     5.7110     1.5060 H     1 <1>   0.0800 
 37 H       -5.2310     5.7440    -0.1190 H     1 <1>   0.0800 
 38 H       -4.1600     5.5590     1.2790 H     1 <1>   0.0800 
 39 H       -2.5620     6.0320    -2.4590 H     1 <1>   0.0800 
 40 H       -2.3280     4.3480    -2.9130 H     1 <1>   0.0800 
 41 H       -1.3300     5.0780    -1.6410 H     1 <1>   0.0800 
 42 H       -6.5290    -6.2840    -2.0630 H     1 <1>   0.1500 
 43 H       -8.8360    -4.7130     1.1460 H     1 <1>   0.1500 
 44 H       -7.9330    -8.2250    -2.1430 H     1 <1>   0.1500 
 45 H      -10.2600    -6.6590     1.0810 H     1 <1>   0.1500 
 46 H       -8.8020   -10.2610    -1.4440 H     1 <1>   0.0800 
 47 H       -9.8500    -9.4550    -2.5920 H     1 <1>   0.0800 
 48 H      -10.4750   -10.7230    -1.5780 H     1 <1>   0.0800 
 49 H      -11.6540    -7.8700    -1.7560 H     1 <1>   0.0800 
 50 H      -11.9630    -7.7310    -0.0480 H     1 <1>   0.0800 
 51 H      -12.2740    -9.2370    -0.8620 H     1 <1>   0.0800 
 52 H       -9.0970    -9.8390     1.0460 H     1 <1>   0.0800 
 53 H      -10.7280   -10.4260     0.8320 H     1 <1>   0.0800 
 54 H      -10.4490    -8.8960     1.6110 H     1 <1>   0.0800 
@<TRIPOS>BOND
  1   1   2  2   
  2   2   3  am  
  3   2   4  1   
  4   3   5  1   
  5   3  30  1   
  6   4   6  ar  
  7   4   7  ar  
  8   5   8  1   
  9   5  31  1   
 10   5  32  1   
 11   6   9  ar  
 12   6  33  1   
 13   7  10  ar  
 14   7  34  1   
 15   8  11  1   
 16   8  12  2   
 17   9  13  1   
 18   9  14  ar  
 19  10  14  ar  
 20  10  35  1   
 21  11  15  1   
 22  12  16  1   
 23  13  17  1   
 24  14  18  1   
 25  15  16  2   
 26  16  19  1   
 27  17  36  1   
 28  17  37  1   
 29  17  38  1   
 30  18  20  1   
 31  19  21  ar  
 32  19  22  ar  
 33  20  39  1   
 34  20  40  1   
 35  20  41  1   
 36  21  23  ar  
 37  21  42  1   
 38  22  24  ar  
 39  22  43  1   
 40  23  25  ar  
 41  23  44  1   
 42  24  25  ar  
 43  24  45  1   
 44  25  26  1   
 45  26  27  1   
 46  26  28  1   
 47  26  29  1   
 48  27  46  1   
 49  27  47  1   
 50  27  48  1   
 51  28  49  1   
 52  28  50  1   
 53  28  51  1   
 54  29  52  1   
 55  29  53  1   
 56  29  54  1   
@<TRIPOS>SUBSTRUCTURE
  1 ****   8 GROUP 4 **** **** 0

# MOE 2024.06 (io_trps.svl 2023.06)
