@<TRIPOS>MOLECULE
1-(Imidazole-1-sulfonyl)-azepane
30 31 1 0 0 
SMALL
USER_CHARGES


@<TRIPOS>ATOM
  1 S        0.1830    -0.2990    -1.4060 S.o2  1 <1>   1.4240 
  2 O        0.3900    -1.6470    -1.8940 O.2   1 <1>  -0.6500 
  3 O       -0.0100     0.7740    -2.3590 O.2   1 <1>  -0.6500 
  4 N       -1.1910    -0.3150    -0.4010 N.am  1 <1>  -0.8490 
  5 N        1.5160     0.1060    -0.3110 N.pl3 1 <1>   0.3170 
  6 C       -2.3210    -0.9990    -1.0480 C.3   1 <1>   0.1960 
  7 C       -1.5360     1.0410     0.0450 C.3   1 <1>   0.1960 
  8 C        1.8280    -0.5360     0.8400 C.2   1 <1>   0.0360 
  9 C        2.4020     1.1330    -0.3530 C.2   1 <1>  -0.3020 
 10 C       -3.2530    -1.5980     0.0090 C.3   1 <1>  -0.1600 
 11 C       -2.5910     1.0650     1.1590 C.3   1 <1>  -0.1600 
 12 N        2.8080    -0.0120     1.5040 N.2   1 <1>  -0.5650 
 13 C        3.1740     1.0410     0.7510 C.2   1 <1>   0.0770 
 14 C       -4.3780    -0.6720     0.4990 C.3   1 <1>  -0.1600 
 15 C       -4.0150     0.8110     0.6440 C.3   1 <1>  -0.1600 
 16 H       -1.9580    -1.8240    -1.6380 H     1 <1>   0.0800 
 17 H       -2.8480    -0.3370    -1.7150 H     1 <1>   0.0800 
 18 H       -1.8730     1.6330    -0.7910 H     1 <1>   0.0800 
 19 H       -0.6520     1.5150     0.4370 H     1 <1>   0.0800 
 20 H        1.2800    -1.4100     1.1520 H     1 <1>   0.1500 
 21 H        2.4210     1.8480    -1.1550 H     1 <1>   0.1500 
 22 H       -2.6620    -1.9300     0.8450 H     1 <1>   0.0800 
 23 H       -3.7150    -2.4750    -0.4090 H     1 <1>   0.0800 
 24 H       -2.5740     2.0520     1.5870 H     1 <1>   0.0800 
 25 H       -2.3280     0.3760     1.9420 H     1 <1>   0.0800 
 26 H        3.9860     1.6850     1.0500 H     1 <1>   0.1500 
 27 H       -4.7170    -1.0420     1.4520 H     1 <1>   0.0800 
 28 H       -5.2120    -0.7450    -0.1790 H     1 <1>   0.0800 
 29 H       -4.1460     1.3080    -0.3020 H     1 <1>   0.0800 
 30 H       -4.7170     1.2580     1.3280 H     1 <1>   0.0800 
@<TRIPOS>BOND
  1   1   2  2   
  2   1   3  2   
  3   1   4  am  
  4   1   5  1   
  5   4   6  1   
  6   4   7  1   
  7   5   8  1   
  8   5   9  1   
  9   6  10  1   
 10   6  16  1   
 11   6  17  1   
 12   7  11  1   
 13   7  18  1   
 14   7  19  1   
 15   8  12  2   
 16   8  20  1   
 17   9  13  2   
 18   9  21  1   
 19  10  14  1   
 20  10  22  1   
 21  10  23  1   
 22  11  15  1   
 23  11  24  1   
 24  11  25  1   
 25  12  13  1   
 26  13  26  1   
 27  14  15  1   
 28  14  27  1   
 29  14  28  1   
 30  15  29  1   
 31  15  30  1   
@<TRIPOS>SUBSTRUCTURE
  1 ****   4 GROUP 4 **** **** 0

# MOE 2024.06 (io_trps.svl 2023.06)
