@<TRIPOS>MOLECULE
2-Amino-4-(2-methoxycarbonylmethoxy-phenyl)-7,7-dimethyl-5-oxo-5,6,7,8-tetrahydr
55 57 1 0 0 
SMALL
USER_CHARGES


@<TRIPOS>ATOM
  1 O        0.3520     0.2270    -0.9520 O.2   1 <1>  -0.5700 
  2 C        0.6010     1.0920    -0.1510 C.2   1 <1>   0.4950 
  3 C        0.4080     2.4890    -0.3790 C.2   1 <1>  -0.1240 
  4 C        1.1840     0.6850     1.1920 C.3   1 <1>  -0.0990 
  5 C        0.9020     3.4370     0.4450 C.2   1 <1>  -0.0620 
  6 C       -0.3960     2.8910    -1.6080 C.3   1 <1>   0.3400 
  7 C        2.2650     1.6720     1.6850 C.3   1 <1>   0.0000 
  8 O        0.7310     4.7460     0.2380 O.3   1 <1>  -0.1530 
  9 C        1.7020     3.1140     1.6990 C.3   1 <1>  -0.0220 
 10 C       -0.3640     4.4020    -1.8430 C.2   1 <1>  -0.1240 
 11 C       -1.8460     2.3870    -1.5010 C.ar  1 <1>  -0.1440 
 12 C        3.4960     1.6010     0.7610 C.3   1 <1>  -0.2400 
 13 C        2.7060     1.2790     3.1040 C.3   1 <1>  -0.2400 
 14 C        0.1730     5.2200    -0.8860 C.2   1 <1>   0.1770 
 15 C       -0.9220     4.8080    -3.0870 C.2   1 <1>   0.7060 
 16 C       -2.7070     2.8010    -0.4860 C.ar  1 <1>   0.0820 
 17 C       -2.3140     1.4840    -2.4460 C.ar  1 <1>  -0.1500 
 18 N        0.2330     6.5800    -0.9520 N.pl3 1 <1>  -0.9000 
 19 O       -1.1210     4.0400    -4.0170 O.2   1 <1>  -0.5700 
 20 O       -1.2370     6.1010    -3.2820 O.3   1 <1>  -0.4300 
 21 O       -2.2350     3.6710     0.4370 O.3   1 <1>  -0.3630 
 22 C       -4.0140     2.3250    -0.4380 C.ar  1 <1>  -0.1500 
 23 C       -3.6110     1.0050    -2.3920 C.ar  1 <1>  -0.1500 
 24 C       -1.8150     6.5470    -4.4950 C.3   1 <1>   0.0400 
 25 C       -2.7860     3.7360     1.7400 C.3   1 <1>   0.1810 
 26 C       -4.4630     1.4270    -1.3880 C.ar  1 <1>  -0.1500 
 27 C       -1.8080     4.4020     2.6930 C.2   1 <1>   0.6590 
 28 O       -1.2690     3.7830     3.5770 O.2   1 <1>  -0.5700 
 29 O       -1.5880     5.7000     2.5080 O.3   1 <1>  -0.4300 
 30 C       -0.6490     6.4120     3.2840 C.3   1 <1>   0.0400 
 31 H        1.5960    -0.3050     1.1100 H     1 <1>   0.0800 
 32 H        0.3750     0.6460     1.8990 H     1 <1>   0.0800 
 33 H        0.0790     2.4200    -2.4520 H     1 <1>   0.0800 
 34 H        1.0560     3.2460     2.5470 H     1 <1>   0.0800 
 35 H        2.5120     3.8160     1.7990 H     1 <1>   0.0800 
 36 H        3.2510     1.9010    -0.2420 H     1 <1>   0.0800 
 37 H        3.8840     0.5980     0.7250 H     1 <1>   0.0800 
 38 H        4.2760     2.2500     1.1200 H     1 <1>   0.0800 
 39 H        1.8710     1.3080     3.7830 H     1 <1>   0.0800 
 40 H        3.4600     1.9560     3.4680 H     1 <1>   0.0800 
 41 H        3.1130     0.2830     3.1120 H     1 <1>   0.0800 
 42 H       -1.6670     1.1450    -3.2370 H     1 <1>   0.1500 
 43 H       -0.2430     7.0940    -1.7050 H     1 <1>   0.4000 
 44 H        0.5680     7.1460    -0.1690 H     1 <1>   0.4000 
 45 H       -4.6960     2.6470     0.3250 H     1 <1>   0.1500 
 46 H       -3.9540     0.3050    -3.1340 H     1 <1>   0.1500 
 47 H       -1.1340     6.3380    -5.3020 H     1 <1>   0.0800 
 48 H       -1.9910     7.6040    -4.4220 H     1 <1>   0.0800 
 49 H       -2.7440     6.0250    -4.6490 H     1 <1>   0.0800 
 50 H       -2.9810     2.7350     2.0780 H     1 <1>   0.0800 
 51 H       -3.6970     4.3010     1.6960 H     1 <1>   0.0800 
 52 H       -5.4730     1.0570    -1.3510 H     1 <1>   0.1500 
 53 H       -0.9260     6.3390     4.3210 H     1 <1>   0.0800 
 54 H        0.3250     5.9830     3.1260 H     1 <1>   0.0800 
 55 H       -0.6570     7.4400     2.9680 H     1 <1>   0.0800 
@<TRIPOS>BOND
  1   1   2  2   
  2   2   3  1   
  3   2   4  1   
  4   3   5  2   
  5   3   6  1   
  6   4   7  1   
  7   4  31  1   
  8   4  32  1   
  9   5   8  1   
 10   5   9  1   
 11   6  10  1   
 12   6  11  1   
 13   6  33  1   
 14   7   9  1   
 15   7  12  1   
 16   7  13  1   
 17   8  14  1   
 18   9  34  1   
 19   9  35  1   
 20  10  14  2   
 21  10  15  1   
 22  11  16  ar  
 23  11  17  ar  
 24  12  36  1   
 25  12  37  1   
 26  12  38  1   
 27  13  39  1   
 28  13  40  1   
 29  13  41  1   
 30  14  18  1   
 31  15  19  2   
 32  15  20  1   
 33  16  21  1   
 34  16  22  ar  
 35  17  23  ar  
 36  17  42  1   
 37  18  43  1   
 38  18  44  1   
 39  20  24  1   
 40  21  25  1   
 41  22  26  ar  
 42  22  45  1   
 43  23  26  ar  
 44  23  46  1   
 45  24  47  1   
 46  24  48  1   
 47  24  49  1   
 48  25  27  1   
 49  25  50  1   
 50  25  51  1   
 51  26  52  1   
 52  27  28  2   
 53  27  29  1   
 54  29  30  1   
 55  30  53  1   
 56  30  54  1   
 57  30  55  1   
@<TRIPOS>SUBSTRUCTURE
  1 ****   3 GROUP 4 **** **** 0

# MOE 2024.06 (io_trps.svl 2023.06)
