@<TRIPOS>MOLECULE
3-tert-Butyl-6-(4-methoxy-benzyl)-[1,2,4]triazolo[3,4-b][1,3,4]thiadiazole
39 41 1 0 0 
SMALL
USER_CHARGES


@<TRIPOS>ATOM
  1 S       -0.1670    -0.1520     0.4110 S.3   1 <1>  -0.1970 
  2 C        0.5640     1.4370     0.3370 C.2   1 <1>   0.2420 
  3 C       -1.7560     0.6270     0.2670 C.2   1 <1>   0.5300 
  4 N        1.7600     1.9020     0.3680 N.2   1 <1>  -0.3380 
  5 N       -0.3890     2.3450     0.2200 N.pl3 1 <1>   0.5050 
  6 N       -1.7130     1.8960     0.1810 N.2   1 <1>  -0.6520 
  7 C       -2.9490    -0.3140     0.2670 C.3   1 <1>   0.0450 
  8 N        1.6010     3.2350     0.2630 N.2   1 <1>  -0.3380 
  9 C        0.3240     3.4860     0.1750 C.2   1 <1>   0.0070 
 10 C       -4.2660     0.4090     0.0150 C.ar  1 <1>  -0.1440 
 11 C       -0.3210     4.8720     0.0390 C.3   1 <1>   0.1800 
 12 C       -4.9770     0.9590     1.0710 C.ar  1 <1>  -0.1500 
 13 C       -4.7600     0.5320    -1.2750 C.ar  1 <1>  -0.1500 
 14 C       -1.1230     4.9540    -1.2690 C.3   1 <1>  -0.2400 
 15 C       -1.2550     5.1390     1.2290 C.3   1 <1>  -0.2400 
 16 C        0.7520     5.9740     0.0140 C.3   1 <1>  -0.2400 
 17 C       -6.1690     1.6250     0.8450 C.ar  1 <1>  -0.1500 
 18 C       -5.9510     1.1980    -1.5030 C.ar  1 <1>  -0.1500 
 19 C       -6.6630     1.7480    -0.4510 C.ar  1 <1>   0.0820 
 20 O       -7.8190     2.3860    -0.7620 O.3   1 <1>  -0.3630 
 21 C       -8.6170     2.9840     0.2350 C.3   1 <1>   0.0400 
 22 H       -2.9910    -0.8170     1.2150 H     1 <1>   0.0800 
 23 H       -2.7990    -1.0600    -0.4910 H     1 <1>   0.0800 
 24 H       -4.6050     0.8770     2.0770 H     1 <1>   0.1500 
 25 H       -4.2240     0.1170    -2.1100 H     1 <1>   0.1500 
 26 H       -1.5400     5.9370    -1.3960 H     1 <1>   0.0800 
 27 H       -0.4850     4.7420    -2.1090 H     1 <1>   0.0800 
 28 H       -1.9320     4.2460    -1.2690 H     1 <1>   0.0800 
 29 H       -2.0650     4.4310     1.2470 H     1 <1>   0.0800 
 30 H       -1.6760     6.1260     1.1650 H     1 <1>   0.0800 
 31 H       -0.7100     5.0570     2.1520 H     1 <1>   0.0800 
 32 H        1.4220     5.8230    -0.8140 H     1 <1>   0.0800 
 33 H        1.3300     5.9520     0.9210 H     1 <1>   0.0800 
 34 H        0.3030     6.9460    -0.0820 H     1 <1>   0.0800 
 35 H       -6.6940     2.0410     1.6830 H     1 <1>   0.1500 
 36 H       -6.3380     1.2960    -2.5010 H     1 <1>   0.1500 
 37 H       -9.4730     3.4260    -0.2440 H     1 <1>   0.0800 
 38 H       -8.0430     3.7450     0.7320 H     1 <1>   0.0800 
 39 H       -8.9370     2.2250     0.9270 H     1 <1>   0.0800 
@<TRIPOS>BOND
  1   1   2  1   
  2   1   3  1   
  3   2   4  2   
  4   2   5  1   
  5   3   6  2   
  6   3   7  1   
  7   4   8  1   
  8   5   6  1   
  9   5   9  1   
 10   7  10  1   
 11   7  22  1   
 12   7  23  1   
 13   8   9  2   
 14   9  11  1   
 15  10  12  ar  
 16  10  13  ar  
 17  11  14  1   
 18  11  15  1   
 19  11  16  1   
 20  12  17  ar  
 21  12  24  1   
 22  13  18  ar  
 23  13  25  1   
 24  14  26  1   
 25  14  27  1   
 26  14  28  1   
 27  15  29  1   
 28  15  30  1   
 29  15  31  1   
 30  16  32  1   
 31  16  33  1   
 32  16  34  1   
 33  17  19  ar  
 34  17  35  1   
 35  18  19  ar  
 36  18  36  1   
 37  19  20  1   
 38  20  21  1   
 39  21  37  1   
 40  21  38  1   
 41  21  39  1   
@<TRIPOS>SUBSTRUCTURE
  1 ****   6 GROUP 4 **** **** 0

# MOE 2024.06 (io_trps.svl 2023.06)
