@<TRIPOS>MOLECULE
3-(2-Fluoro-benzyl)-4-oxo-10-oxa-3-aza-tricyclo[5.2.1.0*1,5*]dec-8-ene-6-carboxy
35 38 1 0 0 
SMALL
USER_CHARGES


@<TRIPOS>ATOM
  1 F       -1.0650     1.8870     1.5990 F     1 <1>  -0.1900 
  2 C       -1.2370     2.4170     0.4170 C.ar  1 <1>   0.1900 
  3 C       -0.1310     2.7320    -0.3580 C.ar  1 <1>  -0.1440 
  4 C       -2.5320     2.6480    -0.0080 C.ar  1 <1>  -0.1500 
  5 C       -0.3540     3.3050    -1.6020 C.ar  1 <1>  -0.1500 
  6 C        1.2900     2.4820     0.1200 C.3   1 <1>   0.2840 
  7 C       -2.7340     3.2180    -1.2530 C.ar  1 <1>  -0.1500 
  8 C       -1.6450     3.5460    -2.0460 C.ar  1 <1>  -0.1500 
  9 N        1.9460     3.7750     0.4010 N.am  1 <1>  -0.6600 
 10 C        2.7730     4.4230    -0.4180 C.2   1 <1>   0.5690 
 11 C        1.4960     4.7000     1.4500 C.3   1 <1>   0.1400 
 12 O        3.2490     3.9510    -1.4240 O.2   1 <1>  -0.5700 
 13 C        2.9830     5.8220     0.1050 C.3   1 <1>  -0.0190 
 14 C        1.7470     6.1960     1.0250 C.3   1 <1>   0.4180 
 15 C        3.0710     6.8790    -1.0230 C.3   1 <1>  -0.1860 
 16 O        1.9730     7.5690     0.7670 O.3   1 <1>  -0.5600 
 17 C        0.4790     6.2640     0.1260 C.2   1 <1>  -0.2880 
 18 C        4.3440     7.6850    -1.0830 C.2   1 <1>   0.9060 
 19 C        1.9550     7.7830    -0.5980 C.3   1 <1>   0.3380 
 20 C        0.6320     7.1520    -0.8470 C.2   1 <1>  -0.2880 
 21 O        4.3610     8.6680    -1.8320 O.co2 1 <1>  -0.9000 
 22 O        5.3310     7.3530    -0.4170 O.co2 1 <1>  -0.9000 
 23 H       -3.3610     2.3870     0.6250 H     1 <1>   0.1500 
 24 H        0.4860     3.5730    -2.2250 H     1 <1>   0.1500 
 25 H        1.8390     1.9640    -0.6490 H     1 <1>   0.0800 
 26 H        1.3080     1.8740     1.0060 H     1 <1>   0.0800 
 27 H       -3.7340     3.4080    -1.6050 H     1 <1>   0.1500 
 28 H       -1.7990     3.9940    -3.0130 H     1 <1>   0.1500 
 29 H        2.0900     4.4990     2.3230 H     1 <1>   0.0800 
 30 H        0.4770     4.4960     1.7280 H     1 <1>   0.0800 
 31 H        3.8700     5.8100     0.7100 H     1 <1>   0.0800 
 32 H        2.8800     6.4810    -2.0000 H     1 <1>   0.0800 
 33 H       -0.3890     5.6480     0.2820 H     1 <1>   0.1500 
 34 H        2.0400     8.8330    -0.8270 H     1 <1>   0.0800 
 35 H        0.0190     7.4570    -1.6740 H     1 <1>   0.1500 
@<TRIPOS>BOND
  1   1   2  1   
  2   2   3  ar  
  3   2   4  ar  
  4   3   5  ar  
  5   3   6  1   
  6   4   7  ar  
  7   4  23  1   
  8   5   8  ar  
  9   5  24  1   
 10   6   9  1   
 11   6  25  1   
 12   6  26  1   
 13   7   8  ar  
 14   7  27  1   
 15   8  28  1   
 16   9  10  am  
 17   9  11  1   
 18  10  12  2   
 19  10  13  1   
 20  11  14  1   
 21  11  29  1   
 22  11  30  1   
 23  13  14  1   
 24  13  15  1   
 25  13  31  1   
 26  14  16  1   
 27  14  17  1   
 28  15  18  1   
 29  15  19  1   
 30  15  32  1   
 31  16  19  1   
 32  17  20  2   
 33  17  33  1   
 34  18  21  ar  
 35  18  22  ar  
 36  19  20  1   
 37  19  34  1   
 38  20  35  1   
@<TRIPOS>SUBSTRUCTURE
  1 ****  17 GROUP 4 **** **** 0

# MOE 2024.06 (io_trps.svl 2023.06)
