@<TRIPOS>MOLECULE
2-[(Z)-2-(4-sec-Butoxy-3-ethoxy-phenyl)-vinyl]-6-hydroxy-5-nitro-3H-pyrimidin-4-
47 48 1 0 0 
SMALL
USER_CHARGES


@<TRIPOS>ATOM
  1 O        2.3730    -0.3980     1.4080 O.2   1 <1>  -0.5200 
  2 N        1.7260    -0.7540     0.3880 N.pl3 1 <1>   0.8360 
  3 O        1.0940     0.1410    -0.2340 O.2   1 <1>  -0.5200 
  4 C        1.4990    -2.0820     0.1210 C.2   1 <1>   0.2190 
  5 C        2.2980    -2.8530    -0.7350 C.2   1 <1>   0.0210 
  6 C        0.4050    -2.7080     0.7070 C.2   1 <1>   0.6160 
  7 O        3.2880    -2.3890    -1.2910 O.3   1 <1>  -0.8500 
  8 N        2.0040    -4.1690    -1.0060 N.2   1 <1>  -0.6210 
  9 O       -0.4110    -2.1930     1.4770 O.2   1 <1>  -0.5700 
 10 N        0.1770    -4.0180     0.4020 N.am  1 <1>  -0.4900 
 11 C        0.9660    -4.7140    -0.4740 C.2   1 <1>   0.4960 
 12 C        0.6260    -6.0730    -0.7800 C.2   1 <1>  -0.1360 
 13 C       -0.5670    -6.7190    -0.7220 C.2   1 <1>  -0.1780 
 14 C       -1.8550    -6.1750    -0.3920 C.ar  1 <1>   0.0280 
 15 C       -2.2970    -4.9840    -0.9640 C.ar  1 <1>  -0.1500 
 16 C       -2.6960    -6.8120     0.5160 C.ar  1 <1>  -0.1500 
 17 C       -3.5030    -4.4130    -0.6060 C.ar  1 <1>   0.0830 
 18 C       -3.9220    -6.2700     0.8550 C.ar  1 <1>  -0.1500 
 19 O       -3.8210    -3.2030    -1.1290 O.3   1 <1>  -0.3630 
 20 C       -4.3450    -5.0750     0.2950 C.ar  1 <1>   0.0830 
 21 C       -3.2060    -2.0820    -0.5260 C.3   1 <1>   0.1200 
 22 O       -5.5590    -4.6120     0.6810 O.3   1 <1>  -0.3630 
 23 C       -2.1830    -1.4880    -1.4930 C.3   1 <1>  -0.2400 
 24 C       -6.5080    -4.2120    -0.2880 C.3   1 <1>   0.2000 
 25 C       -7.6540    -5.2340    -0.3210 C.3   1 <1>  -0.1600 
 26 C       -7.0130    -2.8270     0.1130 C.3   1 <1>  -0.2400 
 27 C       -7.2100    -6.6300    -0.7820 C.3   1 <1>  -0.2400 
 28 H       -0.6610    -4.4460     0.7830 H     1 <1>   0.3700 
 29 H        1.4890    -6.6240    -1.1080 H     1 <1>   0.1500 
 30 H       -0.5920    -7.7690    -0.9560 H     1 <1>   0.1500 
 31 H       -1.6820    -4.4900    -1.6940 H     1 <1>   0.1500 
 32 H       -2.3820    -7.7390     0.9650 H     1 <1>   0.1500 
 33 H       -4.5630    -6.7690     1.5600 H     1 <1>   0.1500 
 34 H       -3.9760    -1.3640    -0.3130 H     1 <1>   0.0800 
 35 H       -2.7440    -2.3780     0.4010 H     1 <1>   0.0800 
 36 H       -2.6630    -1.1950    -2.4090 H     1 <1>   0.0800 
 37 H       -1.4010    -2.1930    -1.7070 H     1 <1>   0.0800 
 38 H       -1.7310    -0.6190    -1.0490 H     1 <1>   0.0800 
 39 H       -6.0420    -4.1690    -1.2570 H     1 <1>   0.0800 
 40 H       -8.1020    -5.2990     0.6560 H     1 <1>   0.0800 
 41 H       -8.4080    -4.8790    -1.0010 H     1 <1>   0.0800 
 42 H       -7.4760    -2.8640     1.0820 H     1 <1>   0.0800 
 43 H       -7.7320    -2.4760    -0.6040 H     1 <1>   0.0800 
 44 H       -6.1930    -2.1330     0.1370 H     1 <1>   0.0800 
 45 H       -6.5240    -7.0590    -0.0740 H     1 <1>   0.0800 
 46 H       -6.7260    -6.5720    -1.7410 H     1 <1>   0.0800 
 47 H       -8.0620    -7.2800    -0.8640 H     1 <1>   0.0800 
@<TRIPOS>BOND
  1   1   2  2   
  2   2   3  2   
  3   2   4  1   
  4   4   5  2   
  5   4   6  1   
  6   5   7  1   
  7   5   8  1   
  8   6   9  2   
  9   6  10  am  
 10   8  11  2   
 11  10  11  1   
 12  10  28  1   
 13  11  12  1   
 14  12  13  2   
 15  12  29  1   
 16  13  14  1   
 17  13  30  1   
 18  14  15  ar  
 19  14  16  ar  
 20  15  17  ar  
 21  15  31  1   
 22  16  18  ar  
 23  16  32  1   
 24  17  19  1   
 25  17  20  ar  
 26  18  20  ar  
 27  18  33  1   
 28  19  21  1   
 29  20  22  1   
 30  21  23  1   
 31  21  34  1   
 32  21  35  1   
 33  22  24  1   
 34  23  36  1   
 35  23  37  1   
 36  23  38  1   
 37  24  25  1   
 38  24  26  1   
 39  24  39  1   
 40  25  27  1   
 41  25  40  1   
 42  25  41  1   
 43  26  42  1   
 44  26  43  1   
 45  26  44  1   
 46  27  45  1   
 47  27  46  1   
 48  27  47  1   
@<TRIPOS>SUBSTRUCTURE
  1 ****  15 GROUP 4 **** **** 0

# MOE 2024.06 (io_trps.svl 2023.06)
