@<TRIPOS>MOLECULE
7-Ethyl-8-[4-(2-fluoro-phenyl)-piperazin-1-ylmethyl]-1,3-dimethyl-3,7-dihydro-pu
55 58 1 0 0 
SMALL
USER_CHARGES


@<TRIPOS>ATOM
  1 F        0.2910     0.5230     0.9890 F     1 <1>  -0.1900 
  2 C        1.3200     0.4590     0.1750 C.ar  1 <1>   0.1900 
  3 C        1.7690     1.6170    -0.4730 C.ar  1 <1>   0.1000 
  4 C        1.9140    -0.7750    -0.0010 C.ar  1 <1>  -0.1500 
  5 N        1.2000     2.8890    -0.3290 N.pl3 1 <1>  -0.8380 
  6 C        2.8610     1.4760    -1.3200 C.ar  1 <1>  -0.1500 
  7 C        3.0020    -0.8800    -0.8520 C.ar  1 <1>  -0.1500 
  8 C        1.3770     3.5160     1.0130 C.3   1 <1>   0.2090 
  9 C       -0.1910     3.0280    -0.8400 C.3   1 <1>   0.2090 
 10 C        3.4710     0.2470    -1.5090 C.ar  1 <1>  -0.1500 
 11 C        0.8880     4.9780     1.0080 C.3   1 <1>   0.1100 
 12 C       -0.6350     4.5010    -0.8120 C.3   1 <1>   0.1100 
 13 N       -0.5200     5.0920     0.5490 N.3   1 <1>  -0.8100 
 14 C       -0.9980     6.4980     0.5800 C.3   1 <1>   0.2540 
 15 C       -2.5340     6.5580     0.5950 C.cat 1 <1>   0.6560 
 16 N       -3.2630     5.5410     1.0360 N.pl3 1 <1>  -0.7000 
 17 N       -3.3280     7.5420     0.1810 N.pl3 1 <1>  -0.7640 
 18 C       -4.5710     5.8610     0.8990 C.2   1 <1>   0.4260 
 19 C       -4.6470     7.1040     0.3660 C.2   1 <1>   0.2770 
 20 C       -2.9660     8.8590    -0.4000 C.3   1 <1>   0.3540 
 21 N       -5.6710     5.0850     1.2090 N.am  1 <1>  -0.4360 
 22 C       -5.9470     7.6540     0.1060 C.2   1 <1>   0.7030 
 23 C       -2.9650     8.7440    -1.9200 C.3   1 <1>  -0.2400 
 24 C       -6.9280     5.5960     0.9260 C.2   1 <1>   0.6900 
 25 C       -5.5110     3.7220     1.7970 C.3   1 <1>   0.0600 
 26 O       -6.0780     8.7660    -0.3760 O.2   1 <1>  -0.5700 
 27 N       -7.0610     6.8820     0.4120 N.am  1 <1>  -0.4200 
 28 O       -7.9140     4.9140     1.1170 O.2   1 <1>  -0.5700 
 29 C       -8.4340     7.4160     0.1460 C.3   1 <1>   0.0600 
 30 H        1.5330    -1.6350     0.5190 H     1 <1>   0.1500 
 31 H        3.2270     2.3480    -1.8310 H     1 <1>   0.1500 
 32 H        3.4800    -1.8330    -1.0040 H     1 <1>   0.1500 
 33 H        2.4190     3.4870     1.2810 H     1 <1>   0.0800 
 34 H        0.8270     2.9580     1.7510 H     1 <1>   0.0800 
 35 H       -0.8610     2.4400    -0.2390 H     1 <1>   0.0800 
 36 H       -0.2330     2.6580    -1.8500 H     1 <1>   0.0800 
 37 H        4.3160     0.1670    -2.1720 H     1 <1>   0.1500 
 38 H        1.5350     5.5510     0.3650 H     1 <1>   0.0800 
 39 H        0.9770     5.3680     2.0080 H     1 <1>   0.0800 
 40 H       -1.6540     4.5530    -1.1540 H     1 <1>   0.0800 
 41 H       -0.0210     5.0500    -1.5060 H     1 <1>   0.0800 
 42 H       -0.6120     7.0380    -0.2660 H     1 <1>   0.0800 
 43 H       -0.6460     6.9750     1.4770 H     1 <1>   0.0800 
 44 H       -2.8310     4.6730     1.3680 H     1 <1>   0.4500 
 45 H       -1.9900     9.1600    -0.0560 H     1 <1>   0.0800 
 46 H       -3.6740     9.6090    -0.0860 H     1 <1>   0.0800 
 47 H       -2.2590     8.0040    -2.2500 H     1 <1>   0.0800 
 48 H       -2.6900     9.6910    -2.3510 H     1 <1>   0.0800 
 49 H       -3.9470     8.4900    -2.2780 H     1 <1>   0.0800 
 50 H       -4.7020     3.7120     2.5060 H     1 <1>   0.0800 
 51 H       -5.3120     3.0100     1.0150 H     1 <1>   0.0800 
 52 H       -6.4090     3.4240     2.3130 H     1 <1>   0.0800 
 53 H       -8.4370     8.4920     0.1460 H     1 <1>   0.0800 
 54 H       -9.1180     7.0790     0.9060 H     1 <1>   0.0800 
 55 H       -8.7780     7.0640    -0.8110 H     1 <1>   0.0800 
@<TRIPOS>BOND
  1   1   2  1   
  2   2   3  ar  
  3   2   4  ar  
  4   3   5  1   
  5   3   6  ar  
  6   4   7  ar  
  7   4  30  1   
  8   5   8  1   
  9   5   9  1   
 10   6  10  ar  
 11   6  31  1   
 12   7  10  ar  
 13   7  32  1   
 14   8  11  1   
 15   8  33  1   
 16   8  34  1   
 17   9  12  1   
 18   9  35  1   
 19   9  36  1   
 20  10  37  1   
 21  11  13  1   
 22  11  38  1   
 23  11  39  1   
 24  12  13  1   
 25  12  40  1   
 26  12  41  1   
 27  13  14  1   
 28  14  15  1   
 29  14  42  1   
 30  14  43  1   
 31  15  16  ar  
 32  15  17  ar  
 33  16  18  1   
 34  16  44  1   
 35  17  19  1   
 36  17  20  1   
 37  18  19  2   
 38  18  21  1   
 39  19  22  1   
 40  20  23  1   
 41  20  45  1   
 42  20  46  1   
 43  21  24  am  
 44  21  25  1   
 45  22  26  2   
 46  22  27  am  
 47  23  47  1   
 48  23  48  1   
 49  23  49  1   
 50  24  27  am  
 51  24  28  2   
 52  25  50  1   
 53  25  51  1   
 54  25  52  1   
 55  27  29  1   
 56  29  53  1   
 57  29  54  1   
 58  29  55  1   
@<TRIPOS>SUBSTRUCTURE
  1 ****  16 GROUP 4 **** **** 0

# MOE 2024.06 (io_trps.svl 2023.06)
