@<TRIPOS>MOLECULE
[(5-Oxo-1-p-tolyl-pyrrolidine-3-carbonyl)-amino]-acetic acid ethyl ester
42 43 1 0 0 
SMALL
USER_CHARGES


@<TRIPOS>ATOM
  1 O        1.4710     0.3420    -0.9680 O.2   1 <1>  -0.5700 
  2 C        2.6030     0.1800    -0.5830 C.2   1 <1>   0.5690 
  3 N        3.1450    -0.9580    -0.0580 N.am  1 <1>  -0.4770 
  4 C        3.6160     1.2890    -0.6510 C.3   1 <1>  -0.0990 
  5 C        2.5410    -2.2190     0.1250 C.ar  1 <1>   0.1170 
  6 C        4.5640    -0.7360     0.2930 C.3   1 <1>   0.1400 
  7 C        4.9490     0.5550    -0.4460 C.3   1 <1>  -0.0190 
  8 C        2.8900    -3.0310     1.2010 C.ar  1 <1>  -0.1500 
  9 C        1.5880    -2.6970    -0.7690 C.ar  1 <1>  -0.1500 
 10 C        6.0090     1.3790     0.2680 C.2   1 <1>   0.5690 
 11 C        2.3150    -4.2770     1.3720 C.ar  1 <1>  -0.1500 
 12 C        1.0090    -3.9420    -0.5990 C.ar  1 <1>  -0.1500 
 13 O        6.5960     0.9180     1.2160 O.2   1 <1>  -0.5700 
 14 N        6.2910     2.6210    -0.1900 N.am  1 <1>  -0.7300 
 15 C        1.3720    -4.7420     0.4710 C.ar  1 <1>  -0.1430 
 16 C        7.3410     3.5180     0.3870 C.3   1 <1>   0.2010 
 17 C        0.7360    -6.1080     0.6580 C.3   1 <1>  -0.0970 
 18 C        7.6240     4.7450    -0.4800 C.2   1 <1>   0.6590 
 19 O        6.9820     4.9810    -1.4750 O.2   1 <1>  -0.5700 
 20 O        8.6110     5.5320    -0.0710 O.3   1 <1>  -0.4300 
 21 C        8.9710     6.6930    -0.7830 C.3   1 <1>   0.1200 
 22 C       10.1320     7.3570    -0.0490 C.3   1 <1>  -0.2400 
 23 H        3.4180     1.9810     0.1480 H     1 <1>   0.0800 
 24 H        3.5720     1.7930    -1.5990 H     1 <1>   0.0800 
 25 H        5.1750    -1.5650    -0.0210 H     1 <1>   0.0800 
 26 H        4.6400    -0.6100     1.3600 H     1 <1>   0.0800 
 27 H        5.3400     0.2720    -1.4060 H     1 <1>   0.0800 
 28 H        3.6110    -2.6890     1.9190 H     1 <1>   0.1500 
 29 H        1.2940    -2.0910    -1.6060 H     1 <1>   0.1500 
 30 H        2.6020    -4.8830     2.2130 H     1 <1>   0.1500 
 31 H        0.2730    -4.2830    -1.3060 H     1 <1>   0.1500 
 32 H        5.8260     3.0100    -1.0180 H     1 <1>   0.3700 
 33 H        8.2540     2.9610     0.5050 H     1 <1>   0.0800 
 34 H        7.0240     3.8490     1.3590 H     1 <1>   0.0800 
 35 H        1.4110    -6.7720     1.1670 H     1 <1>   0.0800 
 36 H        0.4890    -6.5400    -0.2950 H     1 <1>   0.0800 
 37 H       -0.1640    -6.0120     1.2400 H     1 <1>   0.0800 
 38 H        8.1160     7.3470    -0.8260 H     1 <1>   0.0800 
 39 H        9.2580     6.4070    -1.7820 H     1 <1>   0.0800 
 40 H        9.8340     7.6280     0.9480 H     1 <1>   0.0800 
 41 H       10.4280     8.2480    -0.5720 H     1 <1>   0.0800 
 42 H       10.9740     6.6900    -0.0060 H     1 <1>   0.0800 
@<TRIPOS>BOND
  1   1   2  2   
  2   2   3  am  
  3   2   4  1   
  4   3   5  1   
  5   3   6  1   
  6   4   7  1   
  7   4  23  1   
  8   4  24  1   
  9   5   8  ar  
 10   5   9  ar  
 11   6   7  1   
 12   6  25  1   
 13   6  26  1   
 14   7  10  1   
 15   7  27  1   
 16   8  11  ar  
 17   8  28  1   
 18   9  12  ar  
 19   9  29  1   
 20  10  13  2   
 21  10  14  am  
 22  11  15  ar  
 23  11  30  1   
 24  12  15  ar  
 25  12  31  1   
 26  14  16  1   
 27  14  32  1   
 28  15  17  1   
 29  16  18  1   
 30  16  33  1   
 31  16  34  1   
 32  17  35  1   
 33  17  36  1   
 34  17  37  1   
 35  18  19  2   
 36  18  20  1   
 37  20  21  1   
 38  21  22  1   
 39  21  38  1   
 40  21  39  1   
 41  22  40  1   
 42  22  41  1   
 43  22  42  1   
@<TRIPOS>SUBSTRUCTURE
  1 ****   7 GROUP 4 **** **** 0

# MOE 2024.06 (io_trps.svl 2023.06)
