@<TRIPOS>MOLECULE
Thiophene-2-carboxylic acid {1-[3-(4-tert-butyl-phenyl)-[1,2,4]oxadiazol-5-yl]-e
46 48 1 0 0 
SMALL
USER_CHARGES


@<TRIPOS>ATOM
  1 S       -0.5030     0.3410    -1.8190 S.3   1 <1>  -0.0800 
  2 C        1.1010    -0.2420    -1.3520 C.2   1 <1>  -0.0450 
  3 C        0.1540     1.3530    -3.0870 C.2   1 <1>  -0.1100 
  4 C        1.2280    -1.1850    -0.2720 C.2   1 <1>   0.7150 
  5 C        2.0240     0.3440    -2.1570 C.2   1 <1>  -0.1500 
  6 C        1.4930     1.2390    -3.1320 C.2   1 <1>  -0.1500 
  7 O        2.3190    -1.6030     0.0660 O.2   1 <1>  -0.5700 
  8 N        0.1290    -1.6320     0.3910 N.am  1 <1>  -0.7300 
  9 C        0.1230    -2.7080     1.4010 C.3   1 <1>   0.4000 
 10 C       -0.5900    -3.9440     0.8470 C.2   1 <1>   0.2980 
 11 C       -0.5410    -2.1510     2.6610 C.3   1 <1>  -0.2400 
 12 O        0.1070    -4.7640     0.1050 O.3   1 <1>  -0.0190 
 13 N       -1.8090    -4.2700     1.0140 N.2   1 <1>  -0.5650 
 14 N       -0.7370    -5.6900    -0.2250 N.2   1 <1>  -0.4100 
 15 C       -1.8710    -5.4040     0.3080 C.2   1 <1>   0.4620 
 16 C       -3.0900    -6.1860     0.1820 C.ar  1 <1>   0.0540 
 17 C       -3.1270    -7.3560    -0.5740 C.ar  1 <1>  -0.1500 
 18 C       -4.2780    -5.8090     0.8060 C.ar  1 <1>  -0.1500 
 19 C       -4.2830    -8.1040    -0.6980 C.ar  1 <1>  -0.1500 
 20 C       -5.4360    -6.5550     0.6840 C.ar  1 <1>  -0.1500 
 21 C       -5.4640    -7.7220    -0.0730 C.ar  1 <1>  -0.1430 
 22 C       -6.7310    -8.5910    -0.2410 C.3   1 <1>   0.1440 
 23 C       -6.4590   -10.0030     0.2980 C.3   1 <1>  -0.2400 
 24 C       -7.1020    -8.6750    -1.7290 C.3   1 <1>  -0.2400 
 25 C       -7.9510    -8.0340     0.5120 C.3   1 <1>  -0.2400 
 26 H       -0.5380     1.9330    -3.6720 H     1 <1>   0.1500 
 27 H        3.0830     0.1630    -2.0880 H     1 <1>   0.1500 
 28 H        2.1400     1.7560    -3.8200 H     1 <1>   0.1500 
 29 H       -0.7910    -1.3470     0.0530 H     1 <1>   0.3700 
 30 H        1.1340    -2.9890     1.6470 H     1 <1>   0.0800 
 31 H       -1.5530    -1.8500     2.4560 H     1 <1>   0.0800 
 32 H        0.0170    -1.3090     3.0310 H     1 <1>   0.0800 
 33 H       -0.5600    -2.9080     3.4240 H     1 <1>   0.0800 
 34 H       -2.2340    -7.6880    -1.0740 H     1 <1>   0.1500 
 35 H       -4.2980    -4.9120     1.4010 H     1 <1>   0.1500 
 36 H       -4.2490    -8.9970    -1.2940 H     1 <1>   0.1500 
 37 H       -6.3100    -6.1980     1.1950 H     1 <1>   0.1500 
 38 H       -6.1640    -9.9510     1.3310 H     1 <1>   0.0800 
 39 H       -5.6730   -10.4850    -0.2530 H     1 <1>   0.0800 
 40 H       -7.3410   -10.6150     0.2240 H     1 <1>   0.0800 
 41 H       -6.3220    -9.1440    -2.2980 H     1 <1>   0.0800 
 42 H       -7.2600    -7.6870    -2.1230 H     1 <1>   0.0800 
 43 H       -8.0030    -9.2460    -1.8640 H     1 <1>   0.0800 
 44 H       -7.7510    -7.9800     1.5670 H     1 <1>   0.0800 
 45 H       -8.8070    -8.6680     0.3680 H     1 <1>   0.0800 
 46 H       -8.2010    -7.0520     0.1510 H     1 <1>   0.0800 
@<TRIPOS>BOND
  1   1   2  1   
  2   1   3  1   
  3   2   4  1   
  4   2   5  2   
  5   3   6  2   
  6   3  26  1   
  7   4   7  2   
  8   4   8  am  
  9   5   6  1   
 10   5  27  1   
 11   6  28  1   
 12   8   9  1   
 13   8  29  1   
 14   9  10  1   
 15   9  11  1   
 16   9  30  1   
 17  10  12  1   
 18  10  13  2   
 19  11  31  1   
 20  11  32  1   
 21  11  33  1   
 22  12  14  1   
 23  13  15  1   
 24  14  15  2   
 25  15  16  1   
 26  16  17  ar  
 27  16  18  ar  
 28  17  19  ar  
 29  17  34  1   
 30  18  20  ar  
 31  18  35  1   
 32  19  21  ar  
 33  19  36  1   
 34  20  21  ar  
 35  20  37  1   
 36  21  22  1   
 37  22  23  1   
 38  22  24  1   
 39  22  25  1   
 40  23  38  1   
 41  23  39  1   
 42  23  40  1   
 43  24  41  1   
 44  24  42  1   
 45  24  43  1   
 46  25  44  1   
 47  25  45  1   
 48  25  46  1   
@<TRIPOS>SUBSTRUCTURE
  1 ****  15 GROUP 4 **** **** 0

# MOE 2024.06 (io_trps.svl 2023.06)
