@<TRIPOS>MOLECULE
1-[4-(Allyl-methanesulfonyl-amino)-benzoyl]-piperidine-4-carboxylic acid ethyl e
53 54 1 0 0 
SMALL
USER_CHARGES


@<TRIPOS>ATOM
  1 S        0.1110    -0.0770    -1.0080 S.o2  1 <1>   1.3330 
  2 O       -0.7880     0.8490    -1.6540 O.2   1 <1>  -0.6500 
  3 O        0.5570    -1.2580    -1.7070 O.2   1 <1>  -0.6500 
  4 N        1.5070     0.8120    -0.4900 N.am  1 <1>  -0.6930 
  5 C       -0.6020    -0.5810     0.5430 C.3   1 <1>  -0.1350 
  6 C        2.7240     0.2170    -0.1900 C.ar  1 <1>   0.1990 
  7 C        1.3650     2.2760    -0.4240 C.3   1 <1>   0.3340 
  8 C        3.4090    -0.5430    -1.1320 C.ar  1 <1>  -0.1500 
  9 C        3.3050     0.3720     1.0650 C.ar  1 <1>  -0.1500 
 10 C        0.5590     2.6550     0.8050 C.2   1 <1>  -0.2880 
 11 C        4.6250    -1.1250    -0.8320 C.ar  1 <1>  -0.1500 
 12 C        4.5230    -0.2070     1.3630 C.ar  1 <1>  -0.1500 
 13 C       -0.6760     3.1660     0.7860 C.2   1 <1>  -0.3000 
 14 C        5.2210    -0.9640     0.4210 C.ar  1 <1>   0.0860 
 15 C        6.4990    -1.5610     0.7450 C.2   1 <1>   0.5440 
 16 O        6.6030    -2.2060     1.7730 O.2   1 <1>  -0.5700 
 17 N        7.6100    -1.4160    -0.0660 N.am  1 <1>  -0.6600 
 18 C        7.7620    -0.3240    -1.0670 C.3   1 <1>   0.1400 
 19 C        8.8340    -2.2380     0.1400 C.3   1 <1>   0.1400 
 20 C        8.9170     0.5910    -0.6540 C.3   1 <1>  -0.1600 
 21 C        9.9920    -1.3350     0.5720 C.3   1 <1>  -0.1600 
 22 C       10.2280    -0.1930    -0.4350 C.3   1 <1>  -0.0190 
 23 C       11.3870     0.6990     0.0060 C.2   1 <1>   0.6590 
 24 O       11.2320     1.8370     0.3710 O.2   1 <1>  -0.5700 
 25 O       12.5890     0.1390    -0.0470 O.3   1 <1>  -0.4300 
 26 C       13.7460     0.8450     0.3340 C.3   1 <1>   0.1200 
 27 C       14.9450    -0.0820     0.1620 C.3   1 <1>  -0.2400 
 28 H       -1.4830    -1.1660     0.3670 H     1 <1>   0.0800 
 29 H       -0.8700     0.2770     1.1260 H     1 <1>   0.0800 
 30 H        0.1000    -1.1730     1.0960 H     1 <1>   0.0800 
 31 H        0.8780     2.6330    -1.3170 H     1 <1>   0.0800 
 32 H        2.3380     2.7360    -0.3770 H     1 <1>   0.0800 
 33 H        2.9790    -0.6800    -2.1080 H     1 <1>   0.1500 
 34 H        2.7950     0.9430     1.8170 H     1 <1>   0.1500 
 35 H        1.0900     2.4700     1.7210 H     1 <1>   0.1500 
 36 H        5.1280    -1.7210    -1.5730 H     1 <1>   0.1500 
 37 H        4.9550    -0.0850     2.3420 H     1 <1>   0.1500 
 38 H       -1.2340     3.4340     1.6670 H     1 <1>   0.1500 
 39 H       -1.2370     3.3560    -0.1160 H     1 <1>   0.1500 
 40 H        6.8630     0.2620    -1.1400 H     1 <1>   0.0800 
 41 H        7.9610    -0.7580    -2.0320 H     1 <1>   0.0800 
 42 H        9.0790    -2.7360    -0.7820 H     1 <1>   0.0800 
 43 H        8.6650    -2.9950     0.8870 H     1 <1>   0.0800 
 44 H        8.6440     1.1010     0.2540 H     1 <1>   0.0800 
 45 H        9.0660     1.3390    -1.4130 H     1 <1>   0.0800 
 46 H       10.8830    -1.9300     0.6660 H     1 <1>   0.0800 
 47 H        9.7670    -0.9270     1.5430 H     1 <1>   0.0800 
 48 H       10.5140    -0.6290    -1.3750 H     1 <1>   0.0800 
 49 H       13.6360     1.1500     1.3620 H     1 <1>   0.0800 
 50 H       13.8360     1.7170    -0.2930 H     1 <1>   0.0800 
 51 H       14.8340    -0.9510     0.7860 H     1 <1>   0.0800 
 52 H       15.8440     0.4330     0.4480 H     1 <1>   0.0800 
 53 H       15.0360    -0.3840    -0.8660 H     1 <1>   0.0800 
@<TRIPOS>BOND
  1   1   2  2   
  2   1   3  2   
  3   1   4  am  
  4   1   5  1   
  5   4   6  1   
  6   4   7  1   
  7   5  28  1   
  8   5  29  1   
  9   5  30  1   
 10   6   8  ar  
 11   6   9  ar  
 12   7  10  1   
 13   7  31  1   
 14   7  32  1   
 15   8  11  ar  
 16   8  33  1   
 17   9  12  ar  
 18   9  34  1   
 19  10  13  2   
 20  10  35  1   
 21  11  14  ar  
 22  11  36  1   
 23  12  14  ar  
 24  12  37  1   
 25  13  38  1   
 26  13  39  1   
 27  14  15  1   
 28  15  16  2   
 29  15  17  am  
 30  17  18  1   
 31  17  19  1   
 32  18  20  1   
 33  18  40  1   
 34  18  41  1   
 35  19  21  1   
 36  19  42  1   
 37  19  43  1   
 38  20  22  1   
 39  20  44  1   
 40  20  45  1   
 41  21  22  1   
 42  21  46  1   
 43  21  47  1   
 44  22  23  1   
 45  22  48  1   
 46  23  24  2   
 47  23  25  1   
 48  25  26  1   
 49  26  27  1   
 50  26  49  1   
 51  26  50  1   
 52  27  51  1   
 53  27  52  1   
 54  27  53  1   
@<TRIPOS>SUBSTRUCTURE
  1 ****  14 GROUP 4 **** **** 0

# MOE 2024.06 (io_trps.svl 2023.06)
