@<TRIPOS>MOLECULE
[8-(5-Chloro-2-methyl-phenyl)-1,6-dimethyl-2,4-dioxo-1,4,5,6,7,8-hexahydro-2H-1,
53 56 1 0 0 
SMALL
USER_CHARGES


@<TRIPOS>ATOM
  1 CL       1.2770     1.8400     2.6470 Cl    1 <1>  -0.1840 
  2 C        0.4580     2.4920     1.2540 C.ar  1 <1>   0.1700 
  3 C       -0.3630     3.5880     1.4090 C.ar  1 <1>  -0.1570 
  4 C        0.6380     1.9000     0.0200 C.ar  1 <1>  -0.1570 
  5 C       -1.0270     4.1110     0.3090 C.ar  1 <1>   0.3050 
  6 C       -0.0160     2.4230    -1.0820 C.ar  1 <1>  -0.1570 
  7 N       -1.8830     5.2010     0.4950 N.pl3 1 <1>  -0.5800 
  8 C       -0.8470     3.5270    -0.9490 C.ar  1 <1>  -0.1510 
  9 C       -3.2190     5.0720     0.5950 C.cat 1 <1>   1.0690 
 10 C       -1.2730     6.5620     0.5140 C.3   1 <1>   0.1610 
 11 C       -1.5320     4.0750    -2.1980 C.3   1 <1>  -0.1040 
 12 N       -3.9190     3.9420     0.5250 N.pl3 1 <1>  -0.7040 
 13 N       -4.0360     6.0990     0.7810 N.pl3 1 <1>  -0.7670 
 14 C       -2.1310     7.5510     1.3280 C.3   1 <1>  -0.0870 
 15 C       -5.2380     4.2600     0.6570 C.2   1 <1>   0.4210 
 16 C       -5.3450     5.5980     0.8140 C.2   1 <1>   0.2710 
 17 C       -3.6070     7.5090     0.8950 C.3   1 <1>   0.3480 
 18 C       -1.5660     8.9740     1.2100 C.3   1 <1>  -0.2460 
 19 N       -6.3260     3.4090     0.6370 N.am  1 <1>  -0.4410 
 20 C       -6.6440     6.1780     0.9580 C.2   1 <1>   0.6990 
 21 C       -7.5940     3.9710     0.7060 C.2   1 <1>   0.6860 
 22 C       -6.1530     1.9360     0.4650 C.3   1 <1>   0.0530 
 23 O       -6.7890     7.3730     1.1590 O.2   1 <1>  -0.5740 
 24 N       -7.7430     5.3410     0.8640 N.am  1 <1>  -0.4250 
 25 O       -8.5780     3.2650     0.6210 O.2   1 <1>  -0.5740 
 26 C       -9.0590     5.9620     0.4940 C.3   1 <1>   0.1940 
 27 C       -9.1160     6.2910    -0.9950 C.2   1 <1>   0.6550 
 28 O       -8.1560     6.1480    -1.7150 O.2   1 <1>  -0.5740 
 29 O      -10.2780     6.7480    -1.4430 O.3   1 <1>  -0.4350 
 30 C      -10.4720     7.0910    -2.8000 C.3   1 <1>   0.0320 
 31 H       -0.4800     4.0260     2.3830 H     1 <1>   0.1430 
 32 H        1.2860     1.0450    -0.0750 H     1 <1>   0.1430 
 33 H        0.1370     1.9610    -2.0440 H     1 <1>   0.1430 
 34 H       -1.1760     6.9110    -0.5000 H     1 <1>   0.0730 
 35 H       -0.2850     6.5090     0.9420 H     1 <1>   0.0730 
 36 H       -2.5900     3.8890    -2.1640 H     1 <1>   0.0730 
 37 H       -1.1410     3.6080    -3.0860 H     1 <1>   0.0730 
 38 H       -1.3640     5.1330    -2.2860 H     1 <1>   0.0730 
 39 H       -3.5100     3.0240     0.3750 H     1 <1>   0.4450 
 40 H       -2.0770     7.2690     2.3660 H     1 <1>   0.0730 
 41 H       -4.2170     8.0240     1.6190 H     1 <1>   0.0730 
 42 H       -3.7320     7.9920    -0.0600 H     1 <1>   0.0730 
 43 H       -1.5880     9.3170     0.1900 H     1 <1>   0.0730 
 44 H       -0.5470     9.0050     1.5570 H     1 <1>   0.0730 
 45 H       -2.1410     9.6580     1.8120 H     1 <1>   0.0730 
 46 H       -6.0560     1.7030    -0.5810 H     1 <1>   0.0730 
 47 H       -7.0080     1.4090     0.8560 H     1 <1>   0.0730 
 48 H       -5.2810     1.5950     0.9930 H     1 <1>   0.0730 
 49 H       -9.2100     6.8670     1.0540 H     1 <1>   0.0730 
 50 H       -9.8690     5.2960     0.7330 H     1 <1>   0.0730 
 51 H      -11.4830     7.4370    -2.9240 H     1 <1>   0.0730 
 52 H      -10.3020     6.2190    -3.4080 H     1 <1>   0.0730 
 53 H       -9.7790     7.8710    -3.0660 H     1 <1>   0.0730 
@<TRIPOS>BOND
  1   1   2  1   
  2   2   3  ar  
  3   2   4  ar  
  4   3   5  ar  
  5   3  31  1   
  6   4   6  ar  
  7   4  32  1   
  8   5   7  1   
  9   5   8  ar  
 10   6   8  ar  
 11   6  33  1   
 12   7   9  ar  
 13   7  10  1   
 14   8  11  1   
 15   9  12  ar  
 16   9  13  ar  
 17  10  14  1   
 18  10  34  1   
 19  10  35  1   
 20  11  36  1   
 21  11  37  1   
 22  11  38  1   
 23  12  15  1   
 24  12  39  1   
 25  13  16  1   
 26  13  17  1   
 27  14  17  1   
 28  14  18  1   
 29  14  40  1   
 30  15  16  2   
 31  15  19  1   
 32  16  20  1   
 33  17  41  1   
 34  17  42  1   
 35  18  43  1   
 36  18  44  1   
 37  18  45  1   
 38  19  21  am  
 39  19  22  1   
 40  20  23  2   
 41  20  24  am  
 42  21  24  am  
 43  21  25  2   
 44  22  46  1   
 45  22  47  1   
 46  22  48  1   
 47  24  26  1   
 48  26  27  1   
 49  26  49  1   
 50  26  50  1   
 51  27  28  2   
 52  27  29  1   
 53  29  30  1   
 54  30  51  1   
 55  30  52  1   
 56  30  53  1   
@<TRIPOS>SUBSTRUCTURE
  1 ****  12 GROUP 4 **** **** 0

# MOE 2024.06 (io_trps.svl 2023.06)
