@<TRIPOS>MOLECULE
8-(3-Chloro-2-methyl-phenyl)-3-(2-methoxy-ethyl)-1-methyl-5,6,7,8-tetrahydro-1H-
51 54 1 0 0 
SMALL
USER_CHARGES


@<TRIPOS>ATOM
  1 CL      -2.4570    -1.7240    -1.9760 Cl    1 <1>  -0.1840 
  2 C       -3.1520    -1.1740    -0.4700 C.ar  1 <1>   0.1700 
  3 C       -3.9630    -0.0480    -0.4410 C.ar  1 <1>  -0.1510 
  4 C       -2.8710    -1.9060     0.6680 C.ar  1 <1>  -0.1570 
  5 C       -4.5280     0.3240     0.7830 C.ar  1 <1>   0.3050 
  6 C       -4.2010     0.7400    -1.7330 C.3   1 <1>  -0.1040 
  7 C       -3.4110    -1.5170     1.8790 C.ar  1 <1>  -0.1570 
  8 N       -5.4170     1.4000     0.8840 N.pl3 1 <1>  -0.5800 
  9 C       -4.2360    -0.4080     1.9290 C.ar  1 <1>  -0.1570 
 10 C       -6.6820     1.3420     0.4270 C.cat 1 <1>   1.0690 
 11 C       -4.9330     2.6430     1.5470 C.3   1 <1>   0.1610 
 12 N       -7.2830     0.2880    -0.1210 N.pl3 1 <1>  -0.7040 
 13 N       -7.5170     2.3720     0.4610 N.pl3 1 <1>  -0.7670 
 14 C       -5.6620     3.8740     0.9860 C.3   1 <1>  -0.1670 
 15 C       -8.5520     0.6570    -0.4500 C.2   1 <1>   0.4210 
 16 C       -8.7320     1.9480    -0.0970 C.2   1 <1>   0.2710 
 17 C       -7.1860     3.7080     0.9970 C.3   1 <1>   0.3480 
 18 N       -9.5330    -0.1140    -1.0420 N.am  1 <1>  -0.4410 
 19 C      -10.0000     2.5650    -0.3380 C.2   1 <1>   0.6990 
 20 C      -10.7770     0.4660    -1.2590 C.2   1 <1>   0.6860 
 21 C       -9.2810    -1.5400    -1.4070 C.3   1 <1>   0.0520 
 22 O      -10.2030     3.7210    -0.0100 O.2   1 <1>  -0.5740 
 23 N      -10.9890     1.8040    -0.9450 N.am  1 <1>  -0.4260 
 24 O      -11.6820    -0.2040    -1.7110 O.2   1 <1>  -0.5740 
 25 C      -12.3100     2.4310    -1.2700 C.3   1 <1>   0.1330 
 26 C      -13.3180     2.1860    -0.1470 C.3   1 <1>   0.1130 
 27 O      -14.4950     2.8470    -0.4750 O.3   1 <1>  -0.5640 
 28 C      -15.5150     2.6760     0.4550 C.3   1 <1>   0.0320 
 29 H       -2.2310    -2.7690     0.6030 H     1 <1>   0.1430 
 30 H       -4.8970     0.2180    -2.3640 H     1 <1>   0.0720 
 31 H       -3.2760     0.8520    -2.2730 H     1 <1>   0.0720 
 32 H       -4.5730     1.7310    -1.5470 H     1 <1>   0.0720 
 33 H       -3.1890    -2.0770     2.7730 H     1 <1>   0.1430 
 34 H       -4.6590    -0.1140     2.8740 H     1 <1>   0.1430 
 35 H       -3.8720     2.7500     1.3870 H     1 <1>   0.0720 
 36 H       -5.1070     2.5660     2.6070 H     1 <1>   0.0720 
 37 H       -6.8410    -0.6180    -0.2530 H     1 <1>   0.4450 
 38 H       -5.3320     4.0550    -0.0220 H     1 <1>   0.0720 
 39 H       -5.3960     4.7430     1.5630 H     1 <1>   0.0720 
 40 H       -7.5640     3.7900     2.0030 H     1 <1>   0.0720 
 41 H       -7.6460     4.4750     0.3950 H     1 <1>   0.0720 
 42 H       -8.2800    -1.6610    -1.7830 H     1 <1>   0.0720 
 43 H       -9.9650    -1.8610    -2.1740 H     1 <1>   0.0720 
 44 H       -9.4180    -2.1660    -0.5420 H     1 <1>   0.0720 
 45 H      -12.6940     2.0140    -2.1850 H     1 <1>   0.0720 
 46 H      -12.1910     3.4910    -1.4130 H     1 <1>   0.0720 
 47 H      -12.9540     2.5870     0.7840 H     1 <1>   0.0720 
 48 H      -13.5300     1.1350    -0.0530 H     1 <1>   0.0720 
 49 H      -16.3750     3.2230     0.1110 H     1 <1>   0.0720 
 50 H      -15.1960     3.0630     1.4070 H     1 <1>   0.0720 
 51 H      -15.7560     1.6300     0.5290 H     1 <1>   0.0720 
@<TRIPOS>BOND
  1   1   2  1   
  2   2   3  ar  
  3   2   4  ar  
  4   3   5  ar  
  5   3   6  1   
  6   4   7  ar  
  7   4  29  1   
  8   5   8  1   
  9   5   9  ar  
 10   6  30  1   
 11   6  31  1   
 12   6  32  1   
 13   7   9  ar  
 14   7  33  1   
 15   8  10  ar  
 16   8  11  1   
 17   9  34  1   
 18  10  12  ar  
 19  10  13  ar  
 20  11  14  1   
 21  11  35  1   
 22  11  36  1   
 23  12  15  1   
 24  12  37  1   
 25  13  16  1   
 26  13  17  1   
 27  14  17  1   
 28  14  38  1   
 29  14  39  1   
 30  15  16  2   
 31  15  18  1   
 32  16  19  1   
 33  17  40  1   
 34  17  41  1   
 35  18  20  am  
 36  18  21  1   
 37  19  22  2   
 38  19  23  am  
 39  20  23  am  
 40  20  24  2   
 41  21  42  1   
 42  21  43  1   
 43  21  44  1   
 44  23  25  1   
 45  25  26  1   
 46  25  45  1   
 47  25  46  1   
 48  26  27  1   
 49  26  47  1   
 50  26  48  1   
 51  27  28  1   
 52  28  49  1   
 53  28  50  1   
 54  28  51  1   
@<TRIPOS>SUBSTRUCTURE
  1 ****  15 GROUP 4 **** **** 0

# MOE 2024.06 (io_trps.svl 2023.06)
