@<TRIPOS>MOLECULE
8-Diethylamino-7-(2-hydroxy-3-phenoxy-propyl)-1,3-dimethyl-3,7-dihydro-purine-2,
57 59 1 0 0 
SMALL
USER_CHARGES


@<TRIPOS>ATOM
  1 O        1.1810     1.0470     1.2700 O.2   1 <1>  -0.5740 
  2 C        2.1460     1.4380     0.6450 C.2   1 <1>   0.6870 
  3 N        2.0930     2.6500    -0.0340 N.am  1 <1>  -0.4250 
  4 N        3.3040     0.6750     0.6140 N.am  1 <1>  -0.4410 
  5 C        3.2040     3.1510    -0.7010 C.2   1 <1>   0.7000 
  6 C        0.8230     3.4420    -0.0010 C.3   1 <1>   0.0530 
  7 C        4.4020     1.1900    -0.0490 C.2   1 <1>   0.4210 
  8 C        3.3750    -0.6360     1.3250 C.3   1 <1>   0.0530 
  9 O        3.1420     4.2260    -1.2750 O.2   1 <1>  -0.5740 
 10 C        4.4080     2.3710    -0.6990 C.2   1 <1>   0.2710 
 11 N        5.6330     0.6320    -0.1520 N.pl3 1 <1>  -0.7030 
 12 N        5.7120     2.5380    -1.2200 N.pl3 1 <1>  -0.7670 
 13 C        6.4150     1.4530    -0.8530 C.cat 1 <1>   1.0690 
 14 C        6.2600     3.9140    -1.4680 C.3   1 <1>   0.3490 
 15 N        7.7140     1.1670    -1.1130 N.pl3 1 <1>  -0.5960 
 16 C        7.2220     4.3780    -0.3490 C.3   1 <1>   0.1940 
 17 C        8.5310     0.3190    -0.1990 C.3   1 <1>   0.1610 
 18 C        8.4170     1.5720    -2.3630 C.3   1 <1>   0.1610 
 19 O        6.7650     3.9530     0.9000 O.3   1 <1>  -0.6830 
 20 C        7.3870     5.9020    -0.3140 C.3   1 <1>   0.1130 
 21 C        8.8390     1.0950     1.0790 C.3   1 <1>  -0.2460 
 22 C        8.5380     0.3760    -3.3060 C.3   1 <1>  -0.2460 
 23 O        8.1970     6.2360     0.7920 O.3   1 <1>  -0.3680 
 24 C        8.5460     7.5230     1.0420 C.ar  1 <1>   0.0760 
 25 C        8.0670     8.6110     0.3160 C.ar  1 <1>  -0.1560 
 26 C        9.4320     7.7380     2.0860 C.ar  1 <1>  -0.1560 
 27 C        8.4790     9.8930     0.6370 C.ar  1 <1>  -0.1560 
 28 C        9.8430     9.0210     2.4050 C.ar  1 <1>  -0.1560 
 29 C        9.3660    10.0990     1.6800 C.ar  1 <1>  -0.1560 
 30 H       -0.0290     2.7840    -0.0040 H     1 <1>   0.0730 
 31 H        0.7490     4.0870    -0.8600 H     1 <1>   0.0730 
 32 H        0.7960     4.0430     0.8910 H     1 <1>   0.0730 
 33 H        2.3880    -1.0410     1.4740 H     1 <1>   0.0730 
 34 H        3.8380    -0.5010     2.2880 H     1 <1>   0.0730 
 35 H        3.9410    -1.3460     0.7490 H     1 <1>   0.0730 
 36 H        5.9420    -0.2450     0.2480 H     1 <1>   0.4450 
 37 H        5.4550     4.6210    -1.5240 H     1 <1>   0.0730 
 38 H        6.7550     3.9600    -2.4200 H     1 <1>   0.0730 
 39 H        8.1900     3.9360    -0.5040 H     1 <1>   0.0730 
 40 H        9.4620     0.0480    -0.6700 H     1 <1>   0.0730 
 41 H        8.0100    -0.5940     0.0350 H     1 <1>   0.0730 
 42 H        9.3950     1.9570    -2.1220 H     1 <1>   0.0730 
 43 H        7.8740     2.3380    -2.8800 H     1 <1>   0.0730 
 44 H        7.2140     4.5000     1.5870 H     1 <1>   0.3950 
 45 H        6.4330     6.3870    -0.1970 H     1 <1>   0.0730 
 46 H        7.8720     6.2540    -1.2080 H     1 <1>   0.0730 
 47 H        9.3810     1.9960     0.8520 H     1 <1>   0.0730 
 48 H        9.4520     0.4930     1.7270 H     1 <1>   0.0730 
 49 H        7.9390     1.3470     1.6120 H     1 <1>   0.0730 
 50 H        9.1420    -0.4040    -2.8800 H     1 <1>   0.0730 
 51 H        9.0080     0.6900    -4.2220 H     1 <1>   0.0730 
 52 H        7.5660    -0.0160    -3.5500 H     1 <1>   0.0730 
 53 H        7.3770     8.4880    -0.4960 H     1 <1>   0.1440 
 54 H        9.8020     6.9000     2.6480 H     1 <1>   0.1440 
 55 H        8.1080    10.7330     0.0760 H     1 <1>   0.1440 
 56 H       10.5310     9.1800     3.2160 H     1 <1>   0.1440 
 57 H        9.6840    11.0970     1.9270 H     1 <1>   0.1440 
@<TRIPOS>BOND
  1   1   2  2   
  2   2   3  am  
  3   2   4  am  
  4   3   5  am  
  5   3   6  1   
  6   4   7  1   
  7   4   8  1   
  8   5   9  2   
  9   5  10  1   
 10   6  30  1   
 11   6  31  1   
 12   6  32  1   
 13   7  10  2   
 14   7  11  1   
 15   8  33  1   
 16   8  34  1   
 17   8  35  1   
 18  10  12  1   
 19  11  13  ar  
 20  11  36  1   
 21  12  13  ar  
 22  12  14  1   
 23  13  15  ar  
 24  14  16  1   
 25  14  37  1   
 26  14  38  1   
 27  15  17  1   
 28  15  18  1   
 29  16  19  1   
 30  16  20  1   
 31  16  39  1   
 32  17  21  1   
 33  17  40  1   
 34  17  41  1   
 35  18  22  1   
 36  18  42  1   
 37  18  43  1   
 38  19  44  1   
 39  20  23  1   
 40  20  45  1   
 41  20  46  1   
 42  21  47  1   
 43  21  48  1   
 44  21  49  1   
 45  22  50  1   
 46  22  51  1   
 47  22  52  1   
 48  23  24  1   
 49  24  25  ar  
 50  24  26  ar  
 51  25  27  ar  
 52  25  53  1   
 53  26  28  ar  
 54  26  54  1   
 55  27  29  ar  
 56  27  55  1   
 57  28  29  ar  
 58  28  56  1   
 59  29  57  1   
@<TRIPOS>SUBSTRUCTURE
  1 ****  19 GROUP 4 **** **** 0

# MOE 2024.06 (io_trps.svl 2023.06)
