@<TRIPOS>MOLECULE
8-(2-Methoxy-phenyl)-1,6,7-trimethyl-3-(1-methyl-2-oxo-propyl)-1H,8H-imidazo[2,1
54 57 1 0 0 
SMALL
USER_CHARGES


@<TRIPOS>ATOM
  1 O        0.3640     0.6010     0.4530 O.2   1 <1>  -0.5740 
  2 C        1.4100     1.1700     0.2130 C.2   1 <1>   0.6870 
  3 N        1.4060     2.4350    -0.3710 N.am  1 <1>  -0.4250 
  4 N        2.6100     0.5460     0.5260 N.am  1 <1>  -0.4410 
  5 C        2.5940     3.0690    -0.7020 C.2   1 <1>   0.7000 
  6 C        0.1540     3.2640    -0.3070 C.3   1 <1>   0.2750 
  7 C        3.7830     1.2300     0.2820 C.2   1 <1>   0.4210 
  8 C        2.6200    -0.7920     1.1900 C.3   1 <1>   0.0530 
  9 O        2.5870     4.1220    -1.3190 O.2   1 <1>  -0.5740 
 10 C        3.8190     2.4460    -0.3160 C.2   1 <1>   0.2710 
 11 C       -0.3120     3.3880     1.1550 C.2   1 <1>   0.4430 
 12 C       -0.8790     2.7550    -1.3290 C.3   1 <1>  -0.2460 
 13 N        5.0540     0.8310     0.5690 N.pl3 1 <1>  -0.7030 
 14 N        5.1760     2.7980    -0.4090 N.pl3 1 <1>  -0.6330 
 15 O        0.4820     3.6380     2.0150 O.2   1 <1>  -0.5740 
 16 C       -1.7760     3.1950     1.5000 C.3   1 <1>  -0.1860 
 17 C        5.8610     1.8010     0.1340 C.cat 1 <1>   1.0690 
 18 C        6.1030     3.7130    -0.8610 C.2   1 <1>   0.2350 
 19 N        7.1810     2.0140     0.1020 N.pl3 1 <1>  -0.5550 
 20 C        7.3310     3.2300    -0.5560 C.2   1 <1>   0.1580 
 21 C        5.6570     4.9790    -1.5650 C.3   1 <1>  -0.1090 
 22 C        8.1650     1.1080     0.5630 C.ar  1 <1>   0.3050 
 23 C        8.7050     3.8110    -0.8470 C.3   1 <1>  -0.1090 
 24 C        8.2180    -0.2100     0.0890 C.ar  1 <1>   0.0750 
 25 C        9.0820     1.5240     1.5170 C.ar  1 <1>  -0.1570 
 26 O        7.2850    -0.6060    -0.8240 O.3   1 <1>  -0.3680 
 27 C        9.2010    -1.0740     0.5650 C.ar  1 <1>  -0.1570 
 28 C       10.0540     0.6590     1.9870 C.ar  1 <1>  -0.1570 
 29 C        7.4810    -1.7680    -1.6060 C.3   1 <1>   0.0330 
 30 C       10.1130    -0.6370     1.5090 C.ar  1 <1>  -0.1570 
 31 H        0.3830     4.2720    -0.6030 H     1 <1>   0.0730 
 32 H        1.7510    -1.3600     0.9010 H     1 <1>   0.0730 
 33 H        2.6070    -0.6650     2.2580 H     1 <1>   0.0730 
 34 H        3.4930    -1.3510     0.9040 H     1 <1>   0.0730 
 35 H       -1.2520     1.7820    -1.0680 H     1 <1>   0.0730 
 36 H       -0.4350     2.7100    -2.3080 H     1 <1>   0.0730 
 37 H       -1.7120     3.4320    -1.3770 H     1 <1>   0.0730 
 38 H        5.3950    -0.0570     0.9320 H     1 <1>   0.4450 
 39 H       -2.0820     2.1940     1.2560 H     1 <1>   0.0730 
 40 H       -2.3830     3.9000     0.9650 H     1 <1>   0.0730 
 41 H       -1.9220     3.3460     2.5550 H     1 <1>   0.0730 
 42 H        5.0180     5.5530    -0.9180 H     1 <1>   0.0730 
 43 H        5.1080     4.7300    -2.4560 H     1 <1>   0.0730 
 44 H        6.4990     5.5860    -1.8400 H     1 <1>   0.0730 
 45 H        9.3060     3.0890    -1.3720 H     1 <1>   0.0730 
 46 H        9.2020     4.0760     0.0680 H     1 <1>   0.0730 
 47 H        8.6290     4.6920    -1.4570 H     1 <1>   0.0730 
 48 H        9.0410     2.5260     1.9020 H     1 <1>   0.1430 
 49 H        9.2760    -2.0900     0.2220 H     1 <1>   0.1430 
 50 H       10.7660     0.9910     2.7260 H     1 <1>   0.1430 
 51 H        6.7070    -1.8080    -2.3530 H     1 <1>   0.0730 
 52 H        7.4190    -2.6350    -0.9740 H     1 <1>   0.0730 
 53 H        8.4430    -1.7110    -2.0850 H     1 <1>   0.0730 
 54 H       10.8730    -1.3080     1.8750 H     1 <1>   0.1430 
@<TRIPOS>BOND
  1   1   2  2   
  2   2   3  am  
  3   2   4  am  
  4   3   5  am  
  5   3   6  1   
  6   4   7  1   
  7   4   8  1   
  8   5   9  2   
  9   5  10  1   
 10   6  11  1   
 11   6  12  1   
 12   6  31  1   
 13   7  10  2   
 14   7  13  1   
 15   8  32  1   
 16   8  33  1   
 17   8  34  1   
 18  10  14  1   
 19  11  15  2   
 20  11  16  1   
 21  12  35  1   
 22  12  36  1   
 23  12  37  1   
 24  13  17  ar  
 25  13  38  1   
 26  14  17  ar  
 27  14  18  1   
 28  16  39  1   
 29  16  40  1   
 30  16  41  1   
 31  17  19  ar  
 32  18  20  2   
 33  18  21  1   
 34  19  20  1   
 35  19  22  1   
 36  20  23  1   
 37  21  42  1   
 38  21  43  1   
 39  21  44  1   
 40  22  24  ar  
 41  22  25  ar  
 42  23  45  1   
 43  23  46  1   
 44  23  47  1   
 45  24  26  1   
 46  24  27  ar  
 47  25  28  ar  
 48  25  48  1   
 49  26  29  1   
 50  27  30  ar  
 51  27  49  1   
 52  28  30  ar  
 53  28  50  1   
 54  29  51  1   
 55  29  52  1   
 56  29  53  1   
 57  30  54  1   
@<TRIPOS>SUBSTRUCTURE
  1 ****   7 GROUP 4 **** **** 0

# MOE 2024.06 (io_trps.svl 2023.06)
