@<TRIPOS>MOLECULE
7-(4-Chloro-benzyl)-8-[4-(2-hydroxy-ethyl)-piperazin-1-yl]-3-methyl-3,7-dihydro-
54 57 1 0 0 
SMALL
USER_CHARGES


@<TRIPOS>ATOM
  1 CL      -1.2370     0.6620     2.7280 Cl    1 <1>  -0.1840 
  2 C       -2.5440     0.1680     1.6880 C.ar  1 <1>   0.1700 
  3 C       -3.5870    -0.5690     2.2140 C.ar  1 <1>  -0.1570 
  4 C       -2.5170     0.5160     0.3520 C.ar  1 <1>  -0.1570 
  5 C       -4.6120    -0.9840     1.3810 C.ar  1 <1>  -0.1570 
  6 C       -3.5430     0.0980    -0.4790 C.ar  1 <1>  -0.1570 
  7 C       -4.5850    -0.6750     0.0240 C.ar  1 <1>  -0.1510 
  8 C       -5.6810    -1.1550    -0.9190 C.3   1 <1>   0.4930 
  9 N       -6.0330    -2.5920    -0.6810 N.pl3 1 <1>  -0.7670 
 10 C       -5.2890    -3.6550    -0.3240 C.cat 1 <1>   1.0690 
 11 C       -7.3890    -2.9740    -0.5630 C.2   1 <1>   0.2710 
 12 N       -6.1020    -4.6450     0.0560 N.pl3 1 <1>  -0.7040 
 13 N       -3.9340    -3.8090    -0.3370 N.pl3 1 <1>  -0.5960 
 14 C       -8.6580    -2.3540    -0.8230 C.2   1 <1>   0.6990 
 15 C       -7.3910    -4.2410    -0.0940 C.2   1 <1>   0.4210 
 16 C       -3.2010    -4.6920     0.6410 C.3   1 <1>   0.1610 
 17 C       -3.0050    -3.0270    -1.2240 C.3   1 <1>   0.1610 
 18 O       -8.7760    -1.2290    -1.2630 O.2   1 <1>  -0.5740 
 19 N       -9.7810    -3.0860    -0.5680 N.am  1 <1>  -0.4950 
 20 N       -8.5400    -4.9730     0.1650 N.am  1 <1>  -0.4410 
 21 C       -2.0840    -5.5390    -0.0170 C.3   1 <1>   0.3370 
 22 C       -1.9180    -3.9090    -1.8780 C.3   1 <1>   0.3370 
 23 C       -9.7610    -4.3660    -0.0950 C.2   1 <1>   0.6860 
 24 C       -8.4840    -6.3690     0.6920 C.3   1 <1>   0.0530 
 25 N       -1.1570    -4.7100    -0.8610 N.4   1 <1>  -0.9610 
 26 O      -10.8130    -4.9320     0.0790 O.2   1 <1>  -0.5740 
 27 C       -0.1240    -5.5550    -1.5560 C.3   1 <1>   0.3370 
 28 C        0.9120    -6.1590    -0.5950 C.3   1 <1>   0.1130 
 29 O        1.8080    -6.8860    -1.3550 O.3   1 <1>  -0.6840 
 30 H       -3.5930    -0.8010     3.2650 H     1 <1>   0.1430 
 31 H       -1.7040     1.1130    -0.0240 H     1 <1>   0.1430 
 32 H       -5.4290    -1.5390     1.8090 H     1 <1>   0.1430 
 33 H       -3.5160     0.3900    -1.5170 H     1 <1>   0.1430 
 34 H       -5.3820    -1.0270    -1.9450 H     1 <1>   0.0730 
 35 H       -6.5380    -0.5250    -0.7540 H     1 <1>   0.0730 
 36 H       -5.8270    -5.5760     0.3490 H     1 <1>   0.4450 
 37 H       -3.8820    -5.3530     1.1480 H     1 <1>   0.0730 
 38 H       -2.7540    -4.0670     1.3960 H     1 <1>   0.0730 
 39 H       -2.5100    -2.2750    -0.6370 H     1 <1>   0.0730 
 40 H       -3.5590    -2.5370    -2.0050 H     1 <1>   0.0730 
 41 H      -10.6930    -2.6710    -0.7520 H     1 <1>   0.3640 
 42 H       -2.5380    -6.3000    -0.6300 H     1 <1>   0.0730 
 43 H       -1.5210    -6.0380     0.7550 H     1 <1>   0.0730 
 44 H       -1.2340    -3.2780    -2.4230 H     1 <1>   0.0730 
 45 H       -2.3840    -4.5740    -2.5870 H     1 <1>   0.0730 
 46 H       -7.7810    -6.4330     1.5030 H     1 <1>   0.0730 
 47 H       -8.1950    -7.0440    -0.0940 H     1 <1>   0.0730 
 48 H       -9.4480    -6.6740     1.0640 H     1 <1>   0.0730 
 49 H       -0.6460    -4.0510    -0.2540 H     1 <1>   0.4450 
 50 H        0.4090    -4.9490    -2.2710 H     1 <1>   0.0730 
 51 H       -0.6090    -6.3560    -2.0910 H     1 <1>   0.0730 
 52 H        0.4580    -6.8330     0.1100 H     1 <1>   0.0730 
 53 H        1.4620    -5.3880    -0.0820 H     1 <1>   0.0730 
 54 H        2.5260    -7.2760    -0.8090 H     1 <1>   0.3950 
@<TRIPOS>BOND
  1   1   2  1   
  2   2   3  ar  
  3   2   4  ar  
  4   3   5  ar  
  5   3  30  1   
  6   4   6  ar  
  7   4  31  1   
  8   5   7  ar  
  9   5  32  1   
 10   6   7  ar  
 11   6  33  1   
 12   7   8  1   
 13   8   9  1   
 14   8  34  1   
 15   8  35  1   
 16   9  10  ar  
 17   9  11  1   
 18  10  12  ar  
 19  10  13  ar  
 20  11  14  1   
 21  11  15  2   
 22  12  15  1   
 23  12  36  1   
 24  13  16  1   
 25  13  17  1   
 26  14  18  2   
 27  14  19  am  
 28  15  20  1   
 29  16  21  1   
 30  16  37  1   
 31  16  38  1   
 32  17  22  1   
 33  17  39  1   
 34  17  40  1   
 35  19  23  am  
 36  19  41  1   
 37  20  23  am  
 38  20  24  1   
 39  21  25  1   
 40  21  42  1   
 41  21  43  1   
 42  22  25  1   
 43  22  44  1   
 44  22  45  1   
 45  23  26  2   
 46  24  46  1   
 47  24  47  1   
 48  24  48  1   
 49  25  27  1   
 50  25  49  1   
 51  27  28  1   
 52  27  50  1   
 53  27  51  1   
 54  28  29  1   
 55  28  52  1   
 56  28  53  1   
 57  29  54  1   
@<TRIPOS>SUBSTRUCTURE
  1 ****  10 GROUP 4 **** **** 0

# MOE 2024.06 (io_trps.svl 2023.06)
