@<TRIPOS>MOLECULE
1-(2-Cyano-ethyl)-3-thiophen-2-yl-1H-pyrazole-4-carboxylic acid isopropyl ester
35 36 1 0 0 
SMALL
USER_CHARGES


@<TRIPOS>ATOM
  1 S        0.3600    -1.0260    -1.2120 S.3   1 <1>  -0.0800 
  2 C        1.8030    -0.5150    -0.3260 C.2   1 <1>   0.0410 
  3 C       -0.3750     0.5600    -1.0860 C.2   1 <1>  -0.1100 
  4 C        2.8390    -1.4950    -0.1020 C.2   1 <1>   0.2880 
  5 C        1.6530     0.7910     0.0160 C.2   1 <1>  -0.1500 
  6 C        0.4340     1.3960    -0.4130 C.2   1 <1>  -0.1500 
  7 N        2.5520    -2.7560     0.1120 N.2   1 <1>  -0.7070 
  8 C        4.2340    -1.2860    -0.0530 C.2   1 <1>  -0.0860 
  9 N        3.7170    -3.3740     0.3160 N.pl3 1 <1>   0.3140 
 10 C        4.9710    -0.0710    -0.2720 C.2   1 <1>   0.8060 
 11 C        4.7390    -2.5200     0.2280 C.2   1 <1>  -0.3020 
 12 C        3.7860    -4.8220     0.5850 C.3   1 <1>   0.0960 
 13 O        4.5020     0.9450    -0.7410 O.2   1 <1>  -0.5700 
 14 O        6.2660    -0.0930     0.0590 O.3   1 <1>  -0.4300 
 15 C        2.9830    -5.6000    -0.4610 C.3   1 <1>   0.0400 
 16 C        7.1140     1.0230    -0.0870 C.3   1 <1>   0.2000 
 17 C        3.1410    -7.0580    -0.2330 C.1   1 <1>   0.3570 
 18 C        8.5390     0.4920    -0.2150 C.3   1 <1>  -0.2400 
 19 C        6.9600     1.9140     1.1460 C.3   1 <1>  -0.2400 
 20 N        3.2930    -8.1670    -0.0370 N.1   1 <1>  -0.5570 
 21 H       -1.3430     0.6970    -1.5340 H     1 <1>   0.1500 
 22 H        2.3730     1.3650     0.5710 H     1 <1>   0.1500 
 23 H        0.2230     2.4290    -0.1970 H     1 <1>   0.1500 
 24 H        5.7670    -2.8080     0.3570 H     1 <1>   0.1500 
 25 H        3.3860    -5.0010     1.5670 H     1 <1>   0.0800 
 26 H        4.8160    -5.1270     0.5670 H     1 <1>   0.0800 
 27 H        3.3330    -5.3650    -1.4500 H     1 <1>   0.0800 
 28 H        1.9380    -5.3530    -0.3900 H     1 <1>   0.0800 
 29 H        6.8450     1.5580    -0.9840 H     1 <1>   0.0800 
 30 H        8.8140    -0.0660     0.6620 H     1 <1>   0.0800 
 31 H        9.2260     1.3110    -0.3290 H     1 <1>   0.0800 
 32 H        8.6200    -0.1390    -1.0810 H     1 <1>   0.0800 
 33 H        7.1940     1.3650     2.0410 H     1 <1>   0.0800 
 34 H        5.9550     2.2920     1.2090 H     1 <1>   0.0800 
 35 H        7.6270     2.7540     1.0750 H     1 <1>   0.0800 
@<TRIPOS>BOND
  1   1   2  1   
  2   1   3  1   
  3   2   4  1   
  4   2   5  2   
  5   3   6  2   
  6   3  21  1   
  7   4   7  2   
  8   4   8  1   
  9   5   6  1   
 10   5  22  1   
 11   6  23  1   
 12   7   9  1   
 13   8  10  1   
 14   8  11  2   
 15   9  11  1   
 16   9  12  1   
 17  10  13  2   
 18  10  14  1   
 19  11  24  1   
 20  12  15  1   
 21  12  25  1   
 22  12  26  1   
 23  14  16  1   
 24  15  17  1   
 25  15  27  1   
 26  15  28  1   
 27  16  18  1   
 28  16  19  1   
 29  16  29  1   
 30  17  20  3   
 31  18  30  1   
 32  18  31  1   
 33  18  32  1   
 34  19  33  1   
 35  19  34  1   
 36  19  35  1   
@<TRIPOS>SUBSTRUCTURE
  1 ****   8 GROUP 4 **** **** 0

# MOE 2024.06 (io_trps.svl 2023.06)
