@<TRIPOS>MOLECULE
1-Propyl-2,3,4,9-tetrahydro-1H-beta-carboline-3-carboxylic acid
37 39 1 0 0 
SMALL
USER_CHARGES


@<TRIPOS>ATOM
  1 O        0.5590    -0.8130     1.0270 O.co2 1 <1>  -0.9000 
  2 C        0.8930    -1.7690     0.3290 C.2   1 <1>   0.9060 
  3 O        1.8890    -1.7780    -0.4110 O.co2 1 <1>  -0.9000 
  4 C        0.0560    -3.0540     0.3060 C.3   1 <1>   0.3170 
  5 N        0.4100    -3.8940    -0.9080 N.4   1 <1>  -0.9060 
  6 C       -1.4570    -2.7870     0.3440 C.3   1 <1>   0.0210 
  7 C       -0.1000    -5.2680    -0.8870 C.3   1 <1>   0.6030 
  8 C       -2.1860    -4.0660    -0.0280 C.2   1 <1>  -0.1810 
  9 C       -1.5810    -5.1520    -0.5670 C.2   1 <1>  -0.3320 
 10 C        0.6730    -6.0920     0.1510 C.3   1 <1>  -0.1600 
 11 C       -3.5620    -4.3460     0.1020 C.ar  1 <1>   0.0000 
 12 N       -2.5210    -6.1250    -0.7870 N.pl3 1 <1>   0.0330 
 13 C        0.3760    -7.5990     0.0730 C.3   1 <1>  -0.1600 
 14 C       -3.7380    -5.6400    -0.3800 C.ar  1 <1>  -0.1520 
 15 C       -4.6630    -3.6280     0.5790 C.ar  1 <1>  -0.1500 
 16 C        1.2620    -8.3790     1.0490 C.3   1 <1>  -0.2400 
 17 C       -5.0030    -6.2330    -0.3920 C.ar  1 <1>  -0.1500 
 18 C       -5.9080    -4.2140     0.5670 C.ar  1 <1>  -0.1500 
 19 C       -6.0780    -5.5170     0.0810 C.ar  1 <1>  -0.1500 
 20 H        0.3210    -3.5980     1.1930 H     1 <1>   0.0800 
 21 H        1.4330    -3.7850    -1.0060 H     1 <1>   0.4500 
 22 H        0.0160    -3.3970    -1.7080 H     1 <1>   0.4500 
 23 H       -1.7140    -2.0010    -0.3430 H     1 <1>   0.0800 
 24 H       -1.7350    -2.4660     1.3330 H     1 <1>   0.0800 
 25 H        0.0320    -5.7050    -1.8640 H     1 <1>   0.0800 
 26 H        0.4290    -5.7450     1.1400 H     1 <1>   0.0800 
 27 H        1.7260    -5.9460    -0.0100 H     1 <1>   0.0800 
 28 H       -2.3810    -7.0630    -1.1780 H     1 <1>   0.2700 
 29 H        0.5550    -7.9610    -0.9250 H     1 <1>   0.0800 
 30 H       -0.6530    -7.7880     0.3250 H     1 <1>   0.0800 
 31 H       -4.5200    -2.6290     0.9490 H     1 <1>   0.1500 
 32 H        2.3030    -8.2410     0.8140 H     1 <1>   0.0800 
 33 H        1.0380    -9.4300     0.9900 H     1 <1>   0.0800 
 34 H        1.0900    -8.0530     2.0600 H     1 <1>   0.0800 
 35 H       -5.1290    -7.2340    -0.7650 H     1 <1>   0.1500 
 36 H       -6.7660    -3.6750     0.9310 H     1 <1>   0.1500 
 37 H       -7.0630    -5.9510     0.0830 H     1 <1>   0.1500 
@<TRIPOS>BOND
  1   1   2  ar  
  2   2   3  ar  
  3   2   4  1   
  4   4   5  1   
  5   4   6  1   
  6   4  20  1   
  7   5   7  1   
  8   5  21  1   
  9   5  22  1   
 10   6   8  1   
 11   6  23  1   
 12   6  24  1   
 13   7   9  1   
 14   7  10  1   
 15   7  25  1   
 16   8   9  2   
 17   8  11  1   
 18   9  12  1   
 19  10  13  1   
 20  10  26  1   
 21  10  27  1   
 22  11  14  ar  
 23  11  15  ar  
 24  12  14  1   
 25  12  28  1   
 26  13  16  1   
 27  13  29  1   
 28  13  30  1   
 29  14  17  ar  
 30  15  18  ar  
 31  15  31  1   
 32  16  32  1   
 33  16  33  1   
 34  16  34  1   
 35  17  19  ar  
 36  17  35  1   
 37  18  19  ar  
 38  18  36  1   
 39  19  37  1   
@<TRIPOS>SUBSTRUCTURE
  1 ****   8 GROUP 4 **** **** 0

# MOE 2024.06 (io_trps.svl 2023.06)
