@<TRIPOS>MOLECULE
NONAME
53 56 1 0 0 
SMALL
USER_CHARGES


@<TRIPOS>ATOM
  1 O       -3.3500    -1.6580    -2.3370 O.2   1 <1>  -0.5700 
  2 C       -3.5480    -0.5540    -1.8970 C.2   1 <1>   0.4950 
  3 C       -4.1400    -0.2830    -0.6400 C.2   1 <1>  -0.1240 
  4 C       -3.1520     0.6570    -2.7310 C.3   1 <1>  -0.0990 
  5 C       -4.2930     0.9400    -0.0980 C.2   1 <1>  -0.0290 
  6 C       -4.7210    -1.3440     0.2930 C.3   1 <1>   0.4810 
  7 C       -2.7770     1.8810    -1.8630 C.3   1 <1>  -0.1600 
  8 N       -4.9020     0.8850     1.1330 N.am  1 <1>  -0.4690 
  9 C       -3.8310     2.2130    -0.7870 C.3   1 <1>  -0.0220 
 10 C       -3.7130    -2.4260     0.7070 C.2   1 <1>  -0.1240 
 11 C       -5.9880    -1.9060    -0.3630 C.ar  1 <1>  -0.1430 
 12 C       -5.1360    -0.4290     1.4650 C.2   1 <1>   0.5690 
 13 C       -5.2810     2.0360     2.0040 C.3   1 <1>   0.2010 
 14 C       -4.0160    -3.7350     0.4450 C.2   1 <1>   0.1770 
 15 C       -2.5120    -2.0020     1.3490 C.2   1 <1>   0.7060 
 16 C       -6.1110    -3.2730    -0.5540 C.ar  1 <1>   0.0830 
 17 C       -7.0280    -1.0790    -0.7770 C.ar  1 <1>  -0.1500 
 18 O       -5.5900    -0.7990     2.5230 O.2   1 <1>  -0.5700 
 19 C       -6.3060     2.9490     1.3470 C.2   1 <1>   0.6590 
 20 O       -5.1420    -4.1250    -0.1610 O.3   1 <1>  -0.1590 
 21 N       -3.2230    -4.7950     0.7640 N.pl3 1 <1>  -0.9000 
 22 O       -1.6490    -2.7630     1.7630 O.2   1 <1>  -0.5700 
 23 O       -2.2830    -0.6890     1.5190 O.3   1 <1>  -0.4300 
 24 C       -7.2400    -3.8080    -1.1540 C.ar  1 <1>  -0.1500 
 25 C       -8.1580    -1.6110    -1.3740 C.ar  1 <1>  -0.1500 
 26 O       -6.0080     4.0490     0.9570 O.2   1 <1>  -0.5700 
 27 O       -7.5370     2.4650     1.2180 O.3   1 <1>  -0.4300 
 28 C       -1.1130    -0.1740     2.1200 C.3   1 <1>   0.1200 
 29 C       -8.2650    -2.9770    -1.5650 C.ar  1 <1>  -0.1500 
 30 C       -8.5770     3.2180     0.6270 C.3   1 <1>   0.0400 
 31 C       -0.0230    -0.0550     1.0560 C.3   1 <1>  -0.2400 
 32 H       -3.9800     0.9040    -3.3700 H     1 <1>   0.0800 
 33 H       -2.3200     0.3910    -3.3570 H     1 <1>   0.0800 
 34 H       -2.6180     2.7400    -2.4920 H     1 <1>   0.0800 
 35 H       -1.8450     1.6670    -1.3680 H     1 <1>   0.0800 
 36 H       -3.4020     2.8920    -0.0710 H     1 <1>   0.0800 
 37 H       -4.6800     2.6960    -1.2410 H     1 <1>   0.0800 
 38 H       -4.4000     2.6070     2.2310 H     1 <1>   0.0800 
 39 H       -5.6920     1.6720     2.9290 H     1 <1>   0.0800 
 40 H       -6.9760    -0.0120    -0.6410 H     1 <1>   0.1500 
 41 H       -2.3110    -4.6480     1.2220 H     1 <1>   0.4000 
 42 H       -3.4550    -5.7580     0.5120 H     1 <1>   0.4000 
 43 H       -7.3100    -4.8720    -1.2940 H     1 <1>   0.1500 
 44 H       -8.9560    -0.9620    -1.6900 H     1 <1>   0.1500 
 45 H       -0.8100    -0.8170     2.9300 H     1 <1>   0.0800 
 46 H       -1.3530     0.7960     2.5180 H     1 <1>   0.0800 
 47 H       -9.1420    -3.3920    -2.0300 H     1 <1>   0.1500 
 48 H       -9.4750     2.6260     0.6370 H     1 <1>   0.0800 
 49 H       -8.3010     3.4600    -0.3850 H     1 <1>   0.0800 
 50 H       -8.7210     4.1200     1.1970 H     1 <1>   0.0800 
 51 H        0.2210    -1.0260     0.6620 H     1 <1>   0.0800 
 52 H        0.8640     0.3640     1.4940 H     1 <1>   0.0800 
 53 H       -0.3480     0.5860     0.2580 H     1 <1>   0.0800 
@<TRIPOS>BOND
  1   1   2  2   
  2   2   3  1   
  3   2   4  1   
  4   3   5  2   
  5   3   6  1   
  6   4   7  1   
  7   4  32  1   
  8   4  33  1   
  9   5   8  1   
 10   5   9  1   
 11   6  10  1   
 12   6  11  1   
 13   6  12  1   
 14   7   9  1   
 15   7  34  1   
 16   7  35  1   
 17   8  12  am  
 18   8  13  1   
 19   9  36  1   
 20   9  37  1   
 21  10  14  2   
 22  10  15  1   
 23  11  16  ar  
 24  11  17  ar  
 25  12  18  2   
 26  13  19  1   
 27  13  38  1   
 28  13  39  1   
 29  14  20  1   
 30  14  21  1   
 31  15  22  2   
 32  15  23  1   
 33  16  20  1   
 34  16  24  ar  
 35  17  25  ar  
 36  17  40  1   
 37  19  26  2   
 38  19  27  1   
 39  21  41  1   
 40  21  42  1   
 41  23  28  1   
 42  24  29  ar  
 43  24  43  1   
 44  25  29  ar  
 45  25  44  1   
 46  27  30  1   
 47  28  31  1   
 48  28  45  1   
 49  28  46  1   
 50  29  47  1   
 51  30  48  1   
 52  30  49  1   
 53  30  50  1   
 54  31  51  1   
 55  31  52  1   
 56  31  53  1   
@<TRIPOS>SUBSTRUCTURE
  1 ****   6 GROUP 4 **** **** 0

# MOE 2024.06 (io_trps.svl 2023.06)
