@<TRIPOS>MOLECULE
NONAME
42 44 1 0 0 
SMALL
USER_CHARGES


@<TRIPOS>ATOM
  1 CL       1.3700    -0.1320     3.0300 Cl    1 <1>  -0.1770 
  2 C        0.9230    -1.5410     2.1020 C.ar  1 <1>   0.1770 
  3 C        1.4420    -1.7670     0.8440 C.ar  1 <1>  -0.1440 
  4 C        0.0320    -2.4380     2.6550 C.ar  1 <1>  -0.1500 
  5 C        1.0940    -2.8980     0.1180 C.ar  1 <1>   0.1170 
  6 C        2.4130    -0.9240     0.0440 C.3   1 <1>   0.7350 
  7 C       -0.3370    -3.5620     1.9330 C.ar  1 <1>  -0.1500 
  8 N        1.7720    -2.8910    -1.1200 N.am  1 <1>  -0.4770 
  9 C        0.1770    -3.8060     0.6660 C.ar  1 <1>  -0.1440 
 10 S        4.0120    -0.8820     0.9320 S.3   1 <1>  -0.3710 
 11 N        2.0590     0.5250    -0.1190 N.am  1 <1>  -0.2980 
 12 C        2.5390    -1.7590    -1.2340 C.2   1 <1>   0.5690 
 13 C        1.8860    -3.9840    -2.1180 C.3   1 <1>   0.1400 
 14 C       -0.3130    -5.0550    -0.0550 C.3   1 <1>  -0.0970 
 15 C        4.0090     0.8820     0.9840 C.2   1 <1>   0.6510 
 16 N        3.0080     1.4200     0.4290 N.2   1 <1>  -0.5120 
 17 C        0.9150     0.9650    -0.7640 C.2   1 <1>   0.5690 
 18 O        3.2070    -1.4640    -2.2010 O.2   1 <1>  -0.5700 
 19 C        2.9870    -4.9530    -1.6890 C.3   1 <1>  -0.2400 
 20 N        5.0540     1.5590     1.5750 N.am  1 <1>  -0.4900 
 21 O        0.6490     2.1390    -0.8730 O.2   1 <1>  -0.5700 
 22 C       -0.0940     0.0140    -1.3800 C.3   1 <1>  -0.1790 
 23 C        6.0950     1.2430     2.3800 C.2   1 <1>   0.5690 
 24 O        6.8720     2.1080     2.6880 O.2   1 <1>  -0.5700 
 25 C        6.3240    -0.1420     2.9410 C.3   1 <1>  -0.1790 
 26 H       -0.3700    -2.2580     3.6360 H     1 <1>   0.1500 
 27 H       -1.0390    -4.2480     2.3770 H     1 <1>   0.1500 
 28 H        2.1410    -3.5640    -3.0770 H     1 <1>   0.0800 
 29 H        0.9480    -4.4900    -2.2350 H     1 <1>   0.0800 
 30 H       -1.0120    -5.6040     0.5510 H     1 <1>   0.0800 
 31 H       -0.8170    -4.7810    -0.9650 H     1 <1>   0.0800 
 32 H        0.5080    -5.7100    -0.2780 H     1 <1>   0.0800 
 33 H        3.9370    -4.4490    -1.6720 H     1 <1>   0.0800 
 34 H        3.0490    -5.7630    -2.3930 H     1 <1>   0.0800 
 35 H        2.7850    -5.3600    -0.7150 H     1 <1>   0.0800 
 36 H        5.0070     2.5560     1.3810 H     1 <1>   0.3700 
 37 H       -0.5000    -0.6470    -0.6390 H     1 <1>   0.0800 
 38 H        0.3490    -0.5410    -2.1830 H     1 <1>   0.0800 
 39 H       -0.9090     0.5830    -1.7890 H     1 <1>   0.0800 
 40 H        6.6190    -0.8120     2.1560 H     1 <1>   0.0800 
 41 H        5.4320    -0.5020     3.4180 H     1 <1>   0.0800 
 42 H        7.1100    -0.1090     3.6730 H     1 <1>   0.0800 
@<TRIPOS>BOND
  1   1   2  1   
  2   2   3  ar  
  3   2   4  ar  
  4   3   5  ar  
  5   3   6  1   
  6   4   7  ar  
  7   4  26  1   
  8   5   8  1   
  9   5   9  ar  
 10   6  10  1   
 11   6  11  1   
 12   6  12  1   
 13   7   9  ar  
 14   7  27  1   
 15   8  12  am  
 16   8  13  1   
 17   9  14  1   
 18  10  15  1   
 19  11  16  1   
 20  11  17  am  
 21  12  18  2   
 22  13  19  1   
 23  13  28  1   
 24  13  29  1   
 25  14  30  1   
 26  14  31  1   
 27  14  32  1   
 28  15  16  2   
 29  15  20  1   
 30  17  21  2   
 31  17  22  1   
 32  19  33  1   
 33  19  34  1   
 34  19  35  1   
 35  20  23  am  
 36  20  36  1   
 37  22  37  1   
 38  22  38  1   
 39  22  39  1   
 40  23  24  2   
 41  23  25  1   
 42  25  40  1   
 43  25  41  1   
 44  25  42  1   
@<TRIPOS>SUBSTRUCTURE
  1 ****   6 GROUP 4 **** **** 0

# MOE 2024.06 (io_trps.svl 2023.06)
