@<TRIPOS>MOLECULE
1-(4-Ethoxy-benzenesulfonyl)-4-ethyl-piperazine
43 44 1 0 0 
SMALL
USER_CHARGES


@<TRIPOS>ATOM
  1 S        0.1490    -0.3620     1.1710 S.o2  1 <1>   1.4470 
  2 O        0.4610    -0.3410     2.5820 O.2   1 <1>  -0.6500 
  3 O        0.2260    -1.6010     0.4310 O.2   1 <1>  -0.6500 
  4 N        1.3100     0.6570     0.4620 N.am  1 <1>  -0.8490 
  5 C       -1.4160     0.4870     0.8270 C.ar  1 <1>  -0.0090 
  6 C        1.4710     1.9310     1.1950 C.3   1 <1>   0.1960 
  7 C        2.6120    -0.0410     0.3590 C.3   1 <1>   0.1960 
  8 C       -2.1130     1.1510     1.8310 C.ar  1 <1>  -0.1500 
  9 C       -1.9430     0.5200    -0.4600 C.ar  1 <1>  -0.1500 
 10 C        2.4950     2.8780     0.5170 C.3   1 <1>   0.3430 
 11 C        3.7470     0.8620    -0.1860 C.3   1 <1>   0.3430 
 12 C       -3.2880     1.8290     1.5580 C.ar  1 <1>  -0.1500 
 13 C       -3.1190     1.1940    -0.7420 C.ar  1 <1>  -0.1500 
 14 N        3.2330     2.2120    -0.6150 N.4   1 <1>  -0.9590 
 15 C       -3.7990     1.8590     0.2730 C.ar  1 <1>   0.0830 
 16 C        4.2630     3.0970    -1.2170 C.3   1 <1>   0.3430 
 17 O       -4.9510     2.5460     0.0890 O.3   1 <1>  -0.3630 
 18 C        4.6910     2.5400    -2.5700 C.3   1 <1>  -0.2400 
 19 C       -5.5960     2.5860    -1.1620 C.3   1 <1>   0.1200 
 20 C       -6.8710     3.4110    -1.0110 C.3   1 <1>  -0.2400 
 21 H        1.7980     1.7360     2.2040 H     1 <1>   0.0800 
 22 H        0.5240     2.4390     1.2600 H     1 <1>   0.0800 
 23 H        2.5100    -0.8900    -0.2970 H     1 <1>   0.0800 
 24 H        2.9020    -0.4230     1.3250 H     1 <1>   0.0800 
 25 H       -1.7390     1.1350     2.8420 H     1 <1>   0.1500 
 26 H       -1.4270     0.0040    -1.2520 H     1 <1>   0.1500 
 27 H        3.1940     3.2210     1.2610 H     1 <1>   0.0800 
 28 H        1.9700     3.7420     0.1440 H     1 <1>   0.0800 
 29 H        4.2140     0.3610    -1.0180 H     1 <1>   0.0800 
 30 H        4.4940     0.9840     0.5800 H     1 <1>   0.0800 
 31 H       -3.8210     2.3370     2.3420 H     1 <1>   0.1500 
 32 H       -3.4900     1.1900    -1.7500 H     1 <1>   0.1500 
 33 H        2.5100     2.0070    -1.3210 H     1 <1>   0.4500 
 34 H        5.1160     3.1790    -0.5620 H     1 <1>   0.0800 
 35 H        3.8520     4.0840    -1.3630 H     1 <1>   0.0800 
 36 H        5.2020     1.6000    -2.4670 H     1 <1>   0.0800 
 37 H        5.3750     3.2310    -3.0320 H     1 <1>   0.0800 
 38 H        3.8450     2.4260    -3.2240 H     1 <1>   0.0800 
 39 H       -5.8300     1.5770    -1.4580 H     1 <1>   0.0800 
 40 H       -4.9310     3.0410    -1.8750 H     1 <1>   0.0800 
 41 H       -7.5220     2.9580    -0.2860 H     1 <1>   0.0800 
 42 H       -7.3870     3.4600    -1.9530 H     1 <1>   0.0800 
 43 H       -6.6290     4.4120    -0.7000 H     1 <1>   0.0800 
@<TRIPOS>BOND
  1   1   2  2   
  2   1   3  2   
  3   1   4  am  
  4   1   5  1   
  5   4   6  1   
  6   4   7  1   
  7   5   8  ar  
  8   5   9  ar  
  9   6  10  1   
 10   6  21  1   
 11   6  22  1   
 12   7  11  1   
 13   7  23  1   
 14   7  24  1   
 15   8  12  ar  
 16   8  25  1   
 17   9  13  ar  
 18   9  26  1   
 19  10  14  1   
 20  10  27  1   
 21  10  28  1   
 22  11  14  1   
 23  11  29  1   
 24  11  30  1   
 25  12  15  ar  
 26  12  31  1   
 27  13  15  ar  
 28  13  32  1   
 29  14  16  1   
 30  14  33  1   
 31  15  17  1   
 32  16  18  1   
 33  16  34  1   
 34  16  35  1   
 35  17  19  1   
 36  18  36  1   
 37  18  37  1   
 38  18  38  1   
 39  19  20  1   
 40  19  39  1   
 41  19  40  1   
 42  20  41  1   
 43  20  42  1   
 44  20  43  1   
@<TRIPOS>SUBSTRUCTURE
  1 ****   5 GROUP 4 **** **** 0

# MOE 2024.06 (io_trps.svl 2023.06)
