@<TRIPOS>MOLECULE
7-(2-Hydroxy-3-isopropoxy-propyl)-1,3-dimethyl-3,7-dihydro-purine-2,6-dione
41 42 1 0 0 
SMALL
USER_CHARGES


@<TRIPOS>ATOM
  1 O        2.1830    -0.0560    -1.3890 O.2   1 <1>  -0.5700 
  2 C        2.7720     0.7190    -0.6540 C.2   1 <1>   0.6900 
  3 N        2.8310     2.0670    -0.9880 N.am  1 <1>  -0.4200 
  4 N        3.3760     0.2580     0.5010 N.am  1 <1>  -0.4230 
  5 C        3.4660     2.9730    -0.1590 C.2   1 <1>   0.7150 
  6 C        2.1660     2.5310    -2.2420 C.3   1 <1>   0.0600 
  7 C        4.0220     1.1660     1.3320 C.2   1 <1>   0.2900 
  8 C        3.3420    -1.1710     0.9100 C.3   1 <1>   0.0600 
  9 O        3.5170     4.1560    -0.4440 O.2   1 <1>  -0.5700 
 10 C        4.0710     2.4800     1.0240 C.2   1 <1>  -0.2370 
 11 N        4.6500     0.8900     2.4820 N.2   1 <1>  -0.5650 
 12 N        4.7640     3.0680     2.0340 N.pl3 1 <1>   0.0480 
 13 C        5.0750     2.0530     2.8700 C.2   1 <1>   0.0360 
 14 C        5.1430     4.4890     2.1990 C.3   1 <1>   0.0960 
 15 C        6.5430     4.7340     1.6300 C.3   1 <1>   0.2000 
 16 O        6.9630     5.9880     2.0270 O.3   1 <1>  -0.6800 
 17 C        6.6100     4.6830     0.0950 C.3   1 <1>   0.1200 
 18 O        7.8510     5.1670    -0.3410 O.3   1 <1>  -0.5600 
 19 C        8.8710     4.2270    -0.4320 C.3   1 <1>   0.2000 
 20 C       10.1790     4.9760    -0.2050 C.3   1 <1>  -0.2400 
 21 C        8.8220     3.5980    -1.8240 C.3   1 <1>  -0.2400 
 22 H        2.3620     1.8350    -3.0400 H     1 <1>   0.0800 
 23 H        2.5300     3.4980    -2.5410 H     1 <1>   0.0800 
 24 H        1.1040     2.5880    -2.0830 H     1 <1>   0.0800 
 25 H        2.8340    -1.7730     0.1770 H     1 <1>   0.0800 
 26 H        2.8320    -1.2600     1.8520 H     1 <1>   0.0800 
 27 H        4.3490    -1.5340     1.0230 H     1 <1>   0.0800 
 28 H        5.6320     2.2110     3.7780 H     1 <1>   0.1500 
 29 H        5.1410     4.7190     3.2490 H     1 <1>   0.0800 
 30 H        4.4230     5.1160     1.7060 H     1 <1>   0.0800 
 31 H        7.2340     4.0230     2.0500 H     1 <1>   0.0800 
 32 H        7.6190     6.2900     1.3560 H     1 <1>   0.4000 
 33 H        5.8520     5.3240    -0.3220 H     1 <1>   0.0800 
 34 H        6.4510     3.6850    -0.2760 H     1 <1>   0.0800 
 35 H        8.7460     3.4780     0.3330 H     1 <1>   0.0800 
 36 H       10.3010     5.7470    -0.9440 H     1 <1>   0.0800 
 37 H       11.0090     4.2970    -0.2750 H     1 <1>   0.0800 
 38 H       10.1830     5.4180     0.7750 H     1 <1>   0.0800 
 39 H        8.9080     4.3600    -2.5780 H     1 <1>   0.0800 
 40 H        7.9040     3.0590    -1.9660 H     1 <1>   0.0800 
 41 H        9.6370     2.9070    -1.9410 H     1 <1>   0.0800 
@<TRIPOS>BOND
  1   1   2  2   
  2   2   3  am  
  3   2   4  am  
  4   3   5  am  
  5   3   6  1   
  6   4   7  1   
  7   4   8  1   
  8   5   9  2   
  9   5  10  1   
 10   6  22  1   
 11   6  23  1   
 12   6  24  1   
 13   7  10  2   
 14   7  11  1   
 15   8  25  1   
 16   8  26  1   
 17   8  27  1   
 18  10  12  1   
 19  11  13  2   
 20  12  13  1   
 21  12  14  1   
 22  13  28  1   
 23  14  15  1   
 24  14  29  1   
 25  14  30  1   
 26  15  16  1   
 27  15  17  1   
 28  15  31  1   
 29  16  32  1   
 30  17  18  1   
 31  17  33  1   
 32  17  34  1   
 33  18  19  1   
 34  19  20  1   
 35  19  21  1   
 36  19  35  1   
 37  20  36  1   
 38  20  37  1   
 39  20  38  1   
 40  21  39  1   
 41  21  40  1   
 42  21  41  1   
@<TRIPOS>SUBSTRUCTURE
  1 ****  10 GROUP 4 **** **** 0

# MOE 2024.06 (io_trps.svl 2023.06)
