@<TRIPOS>MOLECULE
4-[3-(2-Chloro-phenyl)-[1,2,4]oxadiazol-5-yl]-N-ethyl-butyramide
36 37 1 0 0 
SMALL
USER_CHARGES


@<TRIPOS>ATOM
  1 CL      -0.1820     0.0050     1.1940 Cl    1 <1>  -0.1770 
  2 C        0.0750    -1.5120     0.3620 C.ar  1 <1>   0.1770 
  3 C        1.3660    -2.0000     0.1550 C.ar  1 <1>   0.0540 
  4 C       -1.0460    -2.2040    -0.0580 C.ar  1 <1>  -0.1500 
  5 C        2.5450    -1.2810     0.5750 C.2   1 <1>   0.4620 
  6 C        1.4820    -3.2360    -0.4820 C.ar  1 <1>  -0.1500 
  7 C       -0.9010    -3.4230    -0.6960 C.ar  1 <1>  -0.1500 
  8 N        3.4610    -1.7460     1.3480 N.2   1 <1>  -0.4100 
  9 N        2.8210    -0.0440     0.1620 N.2   1 <1>  -0.5650 
 10 C        0.3660    -3.9390    -0.9040 C.ar  1 <1>  -0.1500 
 11 O        4.3600    -0.8240     1.4900 O.3   1 <1>  -0.0190 
 12 C        3.9230     0.1640     0.7530 C.2   1 <1>   0.2980 
 13 C        4.7430     1.4390     0.6710 C.3   1 <1>   0.0200 
 14 C        5.8560     1.3740    -0.3890 C.3   1 <1>  -0.1600 
 15 C        6.8820     0.2490    -0.1380 C.3   1 <1>  -0.0990 
 16 C        8.0510     0.2410    -1.1150 C.2   1 <1>   0.5690 
 17 O        8.1830     1.1360    -1.9100 O.2   1 <1>  -0.5700 
 18 N        8.9550    -0.7650    -1.0940 N.am  1 <1>  -0.7300 
 19 C        9.0310    -1.9480    -0.2150 C.3   1 <1>   0.1400 
 20 C       10.3850    -1.9440     0.4820 C.3   1 <1>  -0.2400 
 21 H       -2.0230    -1.7900     0.1180 H     1 <1>   0.1500 
 22 H        2.4630    -3.6470    -0.6480 H     1 <1>   0.1500 
 23 H       -1.7690    -3.9690    -1.0260 H     1 <1>   0.1500 
 24 H        0.4830    -4.8900    -1.3960 H     1 <1>   0.1500 
 25 H        5.1660     1.6470     1.6370 H     1 <1>   0.0800 
 26 H        4.0810     2.2500     0.4250 H     1 <1>   0.0800 
 27 H        6.3690     2.3210    -0.4040 H     1 <1>   0.0800 
 28 H        5.4120     1.2330    -1.3610 H     1 <1>   0.0800 
 29 H        6.3890    -0.7020    -0.2160 H     1 <1>   0.0800 
 30 H        7.2820     0.3460     0.8540 H     1 <1>   0.0800 
 31 H        9.7040    -0.6790    -1.7850 H     1 <1>   0.3700 
 32 H        8.9240    -2.8400    -0.8110 H     1 <1>   0.0800 
 33 H        8.2440    -1.9320     0.5180 H     1 <1>   0.0800 
 34 H       11.1810    -1.9950    -0.2400 H     1 <1>   0.0800 
 35 H       10.4610    -2.7970     1.1320 H     1 <1>   0.0800 
 36 H       10.4970    -1.0540     1.0750 H     1 <1>   0.0800 
@<TRIPOS>BOND
  1   1   2  1   
  2   2   3  ar  
  3   2   4  ar  
  4   3   5  1   
  5   3   6  ar  
  6   4   7  ar  
  7   4  21  1   
  8   5   8  2   
  9   5   9  1   
 10   6  10  ar  
 11   6  22  1   
 12   7  10  ar  
 13   7  23  1   
 14   8  11  1   
 15   9  12  2   
 16  10  24  1   
 17  11  12  1   
 18  12  13  1   
 19  13  14  1   
 20  13  25  1   
 21  13  26  1   
 22  14  15  1   
 23  14  27  1   
 24  14  28  1   
 25  15  16  1   
 26  15  29  1   
 27  15  30  1   
 28  16  17  2   
 29  16  18  am  
 30  18  19  1   
 31  18  31  1   
 32  19  20  1   
 33  19  32  1   
 34  19  33  1   
 35  20  34  1   
 36  20  35  1   
 37  20  36  1   
@<TRIPOS>SUBSTRUCTURE
  1 ****  12 GROUP 4 **** **** 0

# MOE 2024.06 (io_trps.svl 2023.06)
