@<TRIPOS>MOLECULE
N-(2,5-Dichloro-phenyl)-2-[4-(piperidine-1-carbonyl)-piperazin-1-yl]-acetamide
50 52 1 0 0 
SMALL
USER_CHARGES


@<TRIPOS>ATOM
  1 CL       0.1600     0.7770     0.7240 Cl    1 <1>  -0.1770 
  2 C       -1.5160     0.4860     0.3060 C.ar  1 <1>   0.1770 
  3 C       -2.3580     1.5730     0.0620 C.ar  1 <1>   0.1170 
  4 C       -1.9560    -0.8230     0.2260 C.ar  1 <1>  -0.1500 
  5 N       -1.8510     2.8790     0.1660 N.am  1 <1>  -0.5470 
  6 C       -3.6830     1.3030    -0.2700 C.ar  1 <1>  -0.1500 
  7 C       -3.2770    -1.0740    -0.1070 C.ar  1 <1>  -0.1500 
  8 C       -2.2780     4.0850    -0.3100 C.2   1 <1>   0.5690 
  9 C       -4.1220    -0.0050    -0.3500 C.ar  1 <1>   0.1770 
 10 O       -3.3020     4.2460    -0.9290 O.2   1 <1>  -0.5700 
 11 C       -1.3680     5.2840    -0.0300 C.3   1 <1>   0.1710 
 12 CL      -5.7860    -0.3240    -0.7660 Cl    1 <1>  -0.1770 
 13 N        0.0330     4.8980     0.3200 N.3   1 <1>  -0.8100 
 14 C        0.7390     6.0080     0.9960 C.3   1 <1>   0.1100 
 15 C        0.7920     4.4720    -0.8850 C.3   1 <1>   0.1100 
 16 C        2.1710     5.6080     1.3940 C.3   1 <1>   0.1400 
 17 C        2.2280     4.0430    -0.5360 C.3   1 <1>   0.1400 
 18 N        2.9280     5.1260     0.2060 N.am  1 <1>  -0.6600 
 19 C        4.2780     5.3160     0.0630 C.2   1 <1>   0.6900 
 20 O        4.9640     4.4130    -0.3860 O.2   1 <1>  -0.5700 
 21 N        4.8610     6.5070     0.4160 N.am  1 <1>  -0.6600 
 22 C        6.3130     6.5740     0.7340 C.3   1 <1>   0.1400 
 23 C        4.2330     7.8140     0.0860 C.3   1 <1>   0.1400 
 24 C        7.0740     7.2300    -0.4230 C.3   1 <1>  -0.1600 
 25 C        4.9870     8.4810    -1.0700 C.3   1 <1>  -0.1600 
 26 C        6.4890     8.6040    -0.7770 C.3   1 <1>  -0.1600 
 27 H       -1.2730    -1.6320     0.4210 H     1 <1>   0.1500 
 28 H       -0.9180     2.9650     0.5900 H     1 <1>   0.3700 
 29 H       -4.3770     2.1000    -0.4630 H     1 <1>   0.1500 
 30 H       -3.6510    -2.0800    -0.1780 H     1 <1>   0.1500 
 31 H       -1.8060     5.8200     0.7930 H     1 <1>   0.0800 
 32 H       -1.3710     5.9340    -0.8870 H     1 <1>   0.0800 
 33 H        0.2010     6.2840     1.8860 H     1 <1>   0.0800 
 34 H        0.7810     6.8660     0.3480 H     1 <1>   0.0800 
 35 H        0.8380     5.2810    -1.5940 H     1 <1>   0.0800 
 36 H        0.2950     3.6440    -1.3600 H     1 <1>   0.0800 
 37 H        2.1260     4.8170     2.1220 H     1 <1>   0.0800 
 38 H        2.6720     6.4440     1.8480 H     1 <1>   0.0800 
 39 H        2.7640     3.8160    -1.4410 H     1 <1>   0.0800 
 40 H        2.2050     3.1550     0.0710 H     1 <1>   0.0800 
 41 H        6.7000     5.5840     0.9110 H     1 <1>   0.0800 
 42 H        6.4460     7.1490     1.6330 H     1 <1>   0.0800 
 43 H        4.2610     8.4450     0.9570 H     1 <1>   0.0800 
 44 H        3.2060     7.6730    -0.2010 H     1 <1>   0.0800 
 45 H        7.0220     6.5790    -1.2780 H     1 <1>   0.0800 
 46 H        8.1100     7.3330    -0.1530 H     1 <1>   0.0800 
 47 H        4.5730     9.4570    -1.2500 H     1 <1>   0.0800 
 48 H        4.8410     7.8940    -1.9600 H     1 <1>   0.0800 
 49 H        6.9960     9.0040    -1.6370 H     1 <1>   0.0800 
 50 H        6.6400     9.2810     0.0460 H     1 <1>   0.0800 
@<TRIPOS>BOND
  1   1   2  1   
  2   2   3  ar  
  3   2   4  ar  
  4   3   5  1   
  5   3   6  ar  
  6   4   7  ar  
  7   4  27  1   
  8   5   8  am  
  9   5  28  1   
 10   6   9  ar  
 11   6  29  1   
 12   7   9  ar  
 13   7  30  1   
 14   8  10  2   
 15   8  11  1   
 16   9  12  1   
 17  11  13  1   
 18  11  31  1   
 19  11  32  1   
 20  13  14  1   
 21  13  15  1   
 22  14  16  1   
 23  14  33  1   
 24  14  34  1   
 25  15  17  1   
 26  15  35  1   
 27  15  36  1   
 28  16  18  1   
 29  16  37  1   
 30  16  38  1   
 31  17  18  1   
 32  17  39  1   
 33  17  40  1   
 34  18  19  am  
 35  19  20  2   
 36  19  21  am  
 37  21  22  1   
 38  21  23  1   
 39  22  24  1   
 40  22  41  1   
 41  22  42  1   
 42  23  25  1   
 43  23  43  1   
 44  23  44  1   
 45  24  26  1   
 46  24  45  1   
 47  24  46  1   
 48  25  26  1   
 49  25  47  1   
 50  25  48  1   
 51  26  49  1   
 52  26  50  1   
@<TRIPOS>SUBSTRUCTURE
  1 ****  15 GROUP 4 **** **** 0

# MOE 2024.06 (io_trps.svl 2023.06)
