@<TRIPOS>MOLECULE
1,6,7-Trimethyl-8-(tetrahydro-furan-2-ylmethyl)-1H,8H-imidazo[2,1-f]purine-2,4-d
43 46 1 0 0 
SMALL
USER_CHARGES


@<TRIPOS>ATOM
  1 O        1.9930    -0.8850    -0.5940 O.2   1 <1>  -0.5750 
  2 C        2.7010     0.0810    -0.4290 C.2   1 <1>   0.6860 
  3 N        4.0480    -0.0330    -0.1130 N.am  1 <1>  -0.4430 
  4 N        2.1500     1.3230    -0.5630 N.am  1 <1>  -0.4960 
  5 C        4.7770     1.1350     0.0410 C.2   1 <1>   0.4190 
  6 C        4.6960    -1.3670     0.0500 C.3   1 <1>   0.0510 
  7 C        2.8500     2.4880    -0.4180 C.2   1 <1>   0.6990 
  8 N        6.1010     1.2570     0.3320 N.pl3 1 <1>  -0.7040 
  9 C        4.2400     2.3750    -0.1040 C.2   1 <1>   0.2690 
 10 O        2.2670     3.5430    -0.5660 O.2   1 <1>  -0.5750 
 11 C        6.3760     2.5600     0.3430 C.cat 1 <1>   1.0680 
 12 N        5.2930     3.2850     0.0950 N.pl3 1 <1>  -0.6340 
 13 N        7.4590     3.3230     0.5320 N.pl3 1 <1>  -0.5730 
 14 C        5.6860     4.6050     0.1170 C.2   1 <1>   0.2330 
 15 C        7.0150     4.6300     0.3870 C.2   1 <1>   0.1560 
 16 C        8.8280     2.8570     0.9210 C.3   1 <1>   0.1590 
 17 C        4.6790     5.7100    -0.1370 C.3   1 <1>  -0.1110 
 18 C        7.9530     5.8170     0.5300 C.3   1 <1>  -0.1110 
 19 C        9.4380     1.8380    -0.0620 C.3   1 <1>   0.1920 
 20 O        8.6800     0.6670    -0.1100 O.3   1 <1>  -0.5650 
 21 C       10.8250     1.3640     0.3450 C.3   1 <1>  -0.1690 
 22 C        9.4640    -0.3760    -0.6050 C.3   1 <1>   0.1110 
 23 C       10.9090    -0.0260    -0.2610 C.3   1 <1>  -0.1690 
 24 H        1.1600     1.3740    -0.7920 H     1 <1>   0.3630 
 25 H        3.9540    -2.1430     0.1380 H     1 <1>   0.0710 
 26 H        5.3020    -1.3780     0.9380 H     1 <1>   0.0710 
 27 H        5.3130    -1.5770    -0.8060 H     1 <1>   0.0710 
 28 H        6.8750     0.5790     0.3080 H     1 <1>   0.4440 
 29 H        8.7850     2.4170     1.9020 H     1 <1>   0.0710 
 30 H        9.4910     3.7020     0.9780 H     1 <1>   0.0710 
 31 H        4.2440     5.5930    -1.1140 H     1 <1>   0.0710 
 32 H        5.1420     6.6770    -0.0810 H     1 <1>   0.0710 
 33 H        3.8920     5.6640     0.5950 H     1 <1>   0.0710 
 34 H        7.4290     6.7420     0.3740 H     1 <1>   0.0710 
 35 H        8.3810     5.8340     1.5160 H     1 <1>   0.0710 
 36 H        8.7450     5.7520    -0.1950 H     1 <1>   0.0710 
 37 H        9.4740     2.2490    -1.0580 H     1 <1>   0.0710 
 38 H       10.9010     1.3000     1.4170 H     1 <1>   0.0710 
 39 H       11.5970     2.0170    -0.0240 H     1 <1>   0.0710 
 40 H        9.3240    -0.4300    -1.6720 H     1 <1>   0.0710 
 41 H        9.1520    -1.2980    -0.1440 H     1 <1>   0.0710 
 42 H       11.3250    -0.7350     0.4330 H     1 <1>   0.0710 
 43 H       11.5060    -0.0270    -1.1570 H     1 <1>   0.0710 
@<TRIPOS>BOND
  1   1   2  2   
  2   2   3  am  
  3   2   4  am  
  4   3   5  1   
  5   3   6  1   
  6   4   7  am  
  7   4  24  1   
  8   5   8  1   
  9   5   9  2   
 10   6  25  1   
 11   6  26  1   
 12   6  27  1   
 13   7   9  1   
 14   7  10  2   
 15   8  11  ar  
 16   8  28  1   
 17   9  12  1   
 18  11  12  ar  
 19  11  13  ar  
 20  12  14  1   
 21  13  15  1   
 22  13  16  1   
 23  14  15  2   
 24  14  17  1   
 25  15  18  1   
 26  16  19  1   
 27  16  29  1   
 28  16  30  1   
 29  17  31  1   
 30  17  32  1   
 31  17  33  1   
 32  18  34  1   
 33  18  35  1   
 34  18  36  1   
 35  19  20  1   
 36  19  21  1   
 37  19  37  1   
 38  20  22  1   
 39  21  23  1   
 40  21  38  1   
 41  21  39  1   
 42  22  23  1   
 43  22  40  1   
 44  22  41  1   
 45  23  42  1   
 46  23  43  1   
@<TRIPOS>SUBSTRUCTURE
  1 ****  11 GROUP 4 **** **** 0

# MOE 2024.06 (io_trps.svl 2023.06)
