@<TRIPOS>MOLECULE
N-(1-Methyl-2-pyrrolidin-1-ylmethyl-1H-benzoimidazol-5-yl)-propionamide
44 46 1 0 0 
SMALL
USER_CHARGES


@<TRIPOS>ATOM
  1 O        0.1090     0.4410     1.1460 O.2   1 <1>  -0.5700 
  2 C        0.5960     1.5410     1.0580 C.2   1 <1>   0.5690 
  3 N        1.8510     1.7840     0.5770 N.am  1 <1>  -0.5470 
  4 C       -0.2220     2.7340     1.5220 C.3   1 <1>  -0.0990 
  5 C        2.8270     0.9030     0.0760 C.ar  1 <1>   0.1170 
  6 C       -0.6520     3.6510     0.3660 C.3   1 <1>  -0.2400 
  7 C        4.1580     1.2630     0.1590 C.ar  1 <1>  -0.1500 
  8 C        2.4870    -0.3240    -0.5220 C.ar  1 <1>  -0.1500 
  9 C        5.1380     0.4090    -0.3370 C.ar  1 <1>   0.2270 
 10 C        3.4490    -1.1750    -1.0160 C.ar  1 <1>  -0.1500 
 11 N        6.4910     0.5640    -0.3490 N.2   1 <1>  -0.5650 
 12 C        4.7890    -0.7940    -0.9170 C.ar  1 <1>  -0.1520 
 13 C        6.9350    -0.5110    -0.9140 C.2   1 <1>   0.0060 
 14 N        5.9560    -1.3840    -1.2920 N.pl3 1 <1>   0.0480 
 15 C        8.4200    -0.7690    -1.1380 C.3   1 <1>   0.5230 
 16 C        6.0420    -2.6960    -1.9680 C.3   1 <1>   0.0160 
 17 N        9.1740     0.1750    -0.2750 N.4   1 <1>  -0.9590 
 18 C       10.5200     0.5660    -0.7380 C.3   1 <1>   0.3430 
 19 C        9.2880    -0.2580     1.1330 C.3   1 <1>   0.3430 
 20 C       11.2050     1.1140     0.5090 C.3   1 <1>  -0.1600 
 21 C       10.3610     0.6580     1.7040 C.3   1 <1>  -0.1600 
 22 H        2.1400     2.7590     0.6190 H     1 <1>   0.3700 
 23 H        0.3530     3.2920     2.2390 H     1 <1>   0.0800 
 24 H       -1.0990     2.3670     2.0250 H     1 <1>   0.0800 
 25 H        0.2040     4.0640    -0.1360 H     1 <1>   0.0800 
 26 H       -1.2540     4.4600     0.7420 H     1 <1>   0.0800 
 27 H       -1.2350     3.0940    -0.3470 H     1 <1>   0.0800 
 28 H        4.4630     2.1890     0.6040 H     1 <1>   0.1500 
 29 H        1.4510    -0.6010    -0.5950 H     1 <1>   0.1500 
 30 H        3.1740    -2.1110    -1.4680 H     1 <1>   0.1500 
 31 H        8.6500    -0.5860    -2.1750 H     1 <1>   0.0800 
 32 H        8.6710    -1.7870    -0.8930 H     1 <1>   0.0800 
 33 H        5.4350    -2.6750    -2.8560 H     1 <1>   0.0800 
 34 H        5.6700    -3.4590    -1.3070 H     1 <1>   0.0800 
 35 H        7.0570    -2.9200    -2.2390 H     1 <1>   0.0800 
 36 H        8.5540     1.0060    -0.2510 H     1 <1>   0.4500 
 37 H       10.4710     1.3050    -1.5220 H     1 <1>   0.0800 
 38 H       11.0560    -0.3000    -1.0910 H     1 <1>   0.0800 
 39 H        9.6210    -1.2820     1.1800 H     1 <1>   0.0800 
 40 H        8.3500    -0.1550     1.6560 H     1 <1>   0.0800 
 41 H       11.2470     2.1890     0.4650 H     1 <1>   0.0800 
 42 H       12.2120     0.7390     0.5700 H     1 <1>   0.0800 
 43 H       10.9500     0.1420     2.4430 H     1 <1>   0.0800 
 44 H        9.8910     1.5050     2.1730 H     1 <1>   0.0800 
@<TRIPOS>BOND
  1   1   2  2   
  2   2   3  am  
  3   2   4  1   
  4   3   5  1   
  5   3  22  1   
  6   4   6  1   
  7   4  23  1   
  8   4  24  1   
  9   5   7  ar  
 10   5   8  ar  
 11   6  25  1   
 12   6  26  1   
 13   6  27  1   
 14   7   9  ar  
 15   7  28  1   
 16   8  10  ar  
 17   8  29  1   
 18   9  11  1   
 19   9  12  ar  
 20  10  12  ar  
 21  10  30  1   
 22  11  13  2   
 23  12  14  1   
 24  13  14  1   
 25  13  15  1   
 26  14  16  1   
 27  15  17  1   
 28  15  31  1   
 29  15  32  1   
 30  16  33  1   
 31  16  34  1   
 32  16  35  1   
 33  17  18  1   
 34  17  19  1   
 35  17  36  1   
 36  18  20  1   
 37  18  37  1   
 38  18  38  1   
 39  19  21  1   
 40  19  39  1   
 41  19  40  1   
 42  20  21  1   
 43  20  41  1   
 44  20  42  1   
 45  21  43  1   
 46  21  44  1   
@<TRIPOS>SUBSTRUCTURE
  1 ****   9 GROUP 4 **** **** 0

# MOE 2024.06 (io_trps.svl 2023.06)
