@<TRIPOS>MOLECULE
N-{4-[3-(5,6-Dimethyl-benzoimidazol-1-yl)-2-hydroxy-propoxy]-phenyl}-N-methyl-ac
52 54 1 0 0 
SMALL
USER_CHARGES


@<TRIPOS>ATOM
  1 O       -0.8300     1.6680    -1.7390 O.2   1 <1>  -0.5700 
  2 C       -0.6780     1.8160    -0.5510 C.2   1 <1>   0.5690 
  3 N       -1.6590     1.5280     0.3770 N.am  1 <1>  -0.4770 
  4 C        0.6660     2.3460    -0.0970 C.3   1 <1>  -0.1790 
  5 C       -2.9390     1.0590     0.0180 C.ar  1 <1>   0.1170 
  6 C       -1.4080     1.6680     1.8380 C.3   1 <1>   0.0600 
  7 C       -4.0830     1.7410     0.4210 C.ar  1 <1>  -0.1500 
  8 C       -3.0920    -0.1020    -0.7310 C.ar  1 <1>  -0.1500 
  9 C       -5.3450     1.2690     0.1060 C.ar  1 <1>  -0.1500 
 10 C       -4.3500    -0.5800    -1.0500 C.ar  1 <1>  -0.1500 
 11 C       -5.4850     0.0940    -0.6290 C.ar  1 <1>   0.0830 
 12 O       -6.6830    -0.4520    -0.9690 O.3   1 <1>  -0.3630 
 13 C       -7.8940     0.1000    -0.4940 C.3   1 <1>   0.1200 
 14 C       -9.0750    -0.7720    -0.9460 C.3   1 <1>   0.2000 
 15 O       -9.2680    -0.6200    -2.3150 O.3   1 <1>  -0.6800 
 16 C      -10.3670    -0.3860    -0.2150 C.3   1 <1>   0.0960 
 17 N      -11.4910    -1.2320    -0.6570 N.pl3 1 <1>   0.0480 
 18 C      -11.7340    -2.5190    -0.2950 C.ar  1 <1>  -0.1520 
 19 C      -12.4290    -0.9360    -1.5930 C.2   1 <1>   0.0360 
 20 C      -12.8220    -2.9140    -1.0460 C.ar  1 <1>   0.2270 
 21 C      -11.1260    -3.3980     0.6040 C.ar  1 <1>  -0.1500 
 22 N      -13.2400    -1.9010    -1.8550 N.2   1 <1>  -0.5650 
 23 C      -13.3270    -4.2030    -0.9090 C.ar  1 <1>  -0.1500 
 24 C      -11.6270    -4.6760     0.7380 C.ar  1 <1>  -0.1430 
 25 C      -12.7380    -5.0840    -0.0250 C.ar  1 <1>  -0.1430 
 26 C      -10.9630    -5.6330     1.7180 C.3   1 <1>  -0.0970 
 27 C      -13.3090    -6.4890     0.1070 C.3   1 <1>  -0.0970 
 28 H        0.5340     3.2330     0.4920 H     1 <1>   0.0800 
 29 H        1.2630     2.5930    -0.9560 H     1 <1>   0.0800 
 30 H        1.1820     1.5980     0.4730 H     1 <1>   0.0800 
 31 H       -0.4940     1.1690     2.1060 H     1 <1>   0.0800 
 32 H       -2.2120     1.2210     2.3970 H     1 <1>   0.0800 
 33 H       -1.3400     2.7100     2.0960 H     1 <1>   0.0800 
 34 H       -3.9790     2.6520     0.9810 H     1 <1>   0.1500 
 35 H       -2.2160    -0.6280    -1.0670 H     1 <1>   0.1500 
 36 H       -6.1990     1.8290     0.4340 H     1 <1>   0.1500 
 37 H       -4.4590    -1.4780    -1.6300 H     1 <1>   0.1500 
 38 H       -7.9940     1.0990    -0.8790 H     1 <1>   0.0800 
 39 H       -7.8410     0.1200     0.5800 H     1 <1>   0.0800 
 40 H       -8.8410    -1.8040    -0.7500 H     1 <1>   0.0800 
 41 H       -9.8430    -1.3340    -2.6620 H     1 <1>   0.4000 
 42 H      -10.6030     0.6450    -0.4070 H     1 <1>   0.0800 
 43 H      -10.2420    -0.5140     0.8440 H     1 <1>   0.0800 
 44 H      -12.4660     0.0290    -2.0670 H     1 <1>   0.1500 
 45 H      -10.2810    -3.0720     1.1810 H     1 <1>   0.1500 
 46 H      -14.1750    -4.4740    -1.5090 H     1 <1>   0.1500 
 47 H      -10.1310    -5.1650     2.2120 H     1 <1>   0.0800 
 48 H      -10.6010    -6.5010     1.1980 H     1 <1>   0.0800 
 49 H      -11.6700    -5.9410     2.4680 H     1 <1>   0.0800 
 50 H      -14.1520    -6.6230    -0.5460 H     1 <1>   0.0800 
 51 H      -13.6340    -6.6620     1.1170 H     1 <1>   0.0800 
 52 H      -12.5620    -7.2170    -0.1540 H     1 <1>   0.0800 
@<TRIPOS>BOND
  1   1   2  2   
  2   2   3  am  
  3   2   4  1   
  4   3   5  1   
  5   3   6  1   
  6   4  28  1   
  7   4  29  1   
  8   4  30  1   
  9   5   7  ar  
 10   5   8  ar  
 11   6  31  1   
 12   6  32  1   
 13   6  33  1   
 14   7   9  ar  
 15   7  34  1   
 16   8  10  ar  
 17   8  35  1   
 18   9  11  ar  
 19   9  36  1   
 20  10  11  ar  
 21  10  37  1   
 22  11  12  1   
 23  12  13  1   
 24  13  14  1   
 25  13  38  1   
 26  13  39  1   
 27  14  15  1   
 28  14  16  1   
 29  14  40  1   
 30  15  41  1   
 31  16  17  1   
 32  16  42  1   
 33  16  43  1   
 34  17  18  1   
 35  17  19  1   
 36  18  20  ar  
 37  18  21  ar  
 38  19  22  2   
 39  19  44  1   
 40  20  22  1   
 41  20  23  ar  
 42  21  24  ar  
 43  21  45  1   
 44  23  25  ar  
 45  23  46  1   
 46  24  25  ar  
 47  24  26  1   
 48  25  27  1   
 49  26  47  1   
 50  26  48  1   
 51  26  49  1   
 52  27  50  1   
 53  27  51  1   
 54  27  52  1   
@<TRIPOS>SUBSTRUCTURE
  1 ****  13 GROUP 4 **** **** 0

# MOE 2024.06 (io_trps.svl 2023.06)
