@<TRIPOS>MOLECULE
C-(5-Ethyl-[1,2,4]oxadiazol-3-yl)-methylamine
18 18 1 0 0 
SMALL
USER_CHARGES


@<TRIPOS>ATOM
  1 O        0.0630    -0.6250    -1.3440 O.3   1 <1>  -0.0190 
  2 N        1.3580    -0.5800    -1.2640 N.2   1 <1>  -0.4100 
  3 C       -0.2870    -1.4320    -0.3730 C.2   1 <1>   0.2980 
  4 C        1.7010    -1.3330    -0.2950 C.2   1 <1>   0.3350 
  5 N        0.6690    -1.9040     0.3210 N.2   1 <1>  -0.5650 
  6 C       -1.7610    -1.7290    -0.1630 C.3   1 <1>   0.0200 
  7 C        3.1390    -1.5770     0.1660 C.3   1 <1>   0.2910 
  8 C       -2.5370    -0.4900     0.3020 C.3   1 <1>  -0.2400 
  9 N        3.4770    -3.0080     0.2210 N.3   1 <1>  -0.9900 
 10 H       -1.8550    -2.5060     0.5740 H     1 <1>   0.0800 
 11 H       -2.1750    -2.0940    -1.0850 H     1 <1>   0.0800 
 12 H        3.2480    -1.1490     1.1470 H     1 <1>   0.0800 
 13 H        3.8180    -1.0750    -0.5010 H     1 <1>   0.0800 
 14 H       -2.1270    -0.1240     1.2270 H     1 <1>   0.0800 
 15 H       -3.5720    -0.7370     0.4570 H     1 <1>   0.0800 
 16 H       -2.4740     0.2900    -0.4360 H     1 <1>   0.0800 
 17 H        2.6550    -3.4900     0.6090 H     1 <1>   0.3600 
 18 H        4.2550    -3.1510     0.8710 H     1 <1>   0.3600 
@<TRIPOS>BOND
  1   1   2  1   
  2   1   3  1   
  3   2   4  2   
  4   3   5  2   
  5   3   6  1   
  6   4   5  1   
  7   4   7  1   
  8   6   8  1   
  9   6  10  1   
 10   6  11  1   
 11   7   9  1   
 12   7  12  1   
 13   7  13  1   
 14   8  14  1   
 15   8  15  1   
 16   8  16  1   
 17   9  17  1   
 18   9  18  1   
@<TRIPOS>SUBSTRUCTURE
  1 ****   5 GROUP 4 **** **** 0

# MOE 2024.06 (io_trps.svl 2023.06)
