@<TRIPOS>MOLECULE
N-(2,4-Dioxo-1,2,3,4-tetrahydro-pyrimidin-5-yl)-2-ethyl-butyramide
31 31 1 0 0 
SMALL
USER_CHARGES


@<TRIPOS>ATOM
  1 O       -1.7430    -0.5130     0.0620 O.2   1 <1>  -0.5700 
  2 C       -1.3780    -1.6660     0.0490 C.2   1 <1>   0.6900 
  3 N       -1.3900    -2.4120     1.1810 N.am  1 <1>  -0.4900 
  4 N       -0.9440    -2.2530    -1.1020 N.am  1 <1>  -0.5390 
  5 C       -0.9870    -3.7160     1.2080 C.2   1 <1>   0.6160 
  6 C       -0.5170    -3.5800    -1.1470 C.2   1 <1>  -0.0410 
  7 O       -1.0320    -4.3130     2.2680 O.2   1 <1>  -0.5700 
  8 C       -0.5250    -4.3350    -0.0150 C.2   1 <1>   0.1230 
  9 N       -0.1120    -5.6950     0.0600 N.am  1 <1>  -0.5390 
 10 C        0.3920    -6.5380    -0.8860 C.2   1 <1>   0.5690 
 11 O        0.5660    -6.2010    -2.0330 O.2   1 <1>  -0.5700 
 12 C        0.7580    -7.9610    -0.4560 C.3   1 <1>  -0.0190 
 13 C        2.2930    -8.1540    -0.5100 C.3   1 <1>  -0.1600 
 14 C       -0.0210    -8.9820    -1.3190 C.3   1 <1>  -0.1600 
 15 C        2.8450    -8.9980     0.6480 C.3   1 <1>  -0.2400 
 16 C        0.1480   -10.4440    -0.8890 C.3   1 <1>  -0.2400 
 17 H       -1.7120    -1.9800     2.0390 H     1 <1>   0.3700 
 18 H       -0.9510    -1.6540    -1.9310 H     1 <1>   0.3700 
 19 H       -0.1910    -3.9540    -2.1040 H     1 <1>   0.1500 
 20 H       -0.2030    -6.0810     1.0050 H     1 <1>   0.3700 
 21 H        0.4360    -8.0800     0.5630 H     1 <1>   0.0800 
 22 H        2.7720    -7.1910    -0.4620 H     1 <1>   0.0800 
 23 H        2.5730    -8.5930    -1.4530 H     1 <1>   0.0800 
 24 H        0.2800    -8.8830    -2.3490 H     1 <1>   0.0800 
 25 H       -1.0690    -8.7370    -1.2720 H     1 <1>   0.0800 
 26 H        2.6290    -8.5290     1.5920 H     1 <1>   0.0800 
 27 H        3.9120    -9.0880     0.5540 H     1 <1>   0.0800 
 28 H        2.4240    -9.9860     0.6520 H     1 <1>   0.0800 
 29 H        1.1500   -10.7830    -1.0800 H     1 <1>   0.0800 
 30 H       -0.5250   -11.0680    -1.4510 H     1 <1>   0.0800 
 31 H       -0.0740   -10.5620     0.1570 H     1 <1>   0.0800 
@<TRIPOS>BOND
  1   1   2  2   
  2   2   3  am  
  3   2   4  am  
  4   3   5  am  
  5   3  17  1   
  6   4   6  1   
  7   4  18  1   
  8   5   7  2   
  9   5   8  1   
 10   6   8  2   
 11   6  19  1   
 12   8   9  1   
 13   9  10  am  
 14   9  20  1   
 15  10  11  2   
 16  10  12  1   
 17  12  13  1   
 18  12  14  1   
 19  12  21  1   
 20  13  15  1   
 21  13  22  1   
 22  13  23  1   
 23  14  16  1   
 24  14  24  1   
 25  14  25  1   
 26  15  26  1   
 27  15  27  1   
 28  15  28  1   
 29  16  29  1   
 30  16  30  1   
 31  16  31  1   
@<TRIPOS>SUBSTRUCTURE
  1 ****   9 GROUP 4 **** **** 0

# MOE 2024.06 (io_trps.svl 2023.06)
