@<TRIPOS>MOLECULE
5-Thiophen-2-yl-pentanoic acid (4-methoxy-phenyl)-amide
39 40 1 0 0 
SMALL
USER_CHARGES


@<TRIPOS>ATOM
  1 S        0.0750    -1.4420     0.2280 S.3   1 <1>  -0.0800 
  2 C       -0.0090     0.3010     0.0180 C.2   1 <1>  -0.1400 
  3 C       -1.4660    -1.4610     1.0670 C.2   1 <1>  -0.1100 
  4 C       -1.1430     0.7850     0.5590 C.2   1 <1>  -0.1500 
  5 C        1.1360     0.9820    -0.7070 C.3   1 <1>   0.0200 
  6 C       -1.9710    -0.2170     1.1580 C.2   1 <1>  -0.1500 
  7 C        2.4090     0.9730     0.1470 C.3   1 <1>  -0.1600 
  8 C        3.5640     1.6990    -0.5560 C.3   1 <1>  -0.1600 
  9 C        4.8310     1.6990     0.3160 C.3   1 <1>  -0.0990 
 10 C        5.9990     2.4080    -0.3530 C.2   1 <1>   0.5690 
 11 O        6.9040     1.7480    -0.7960 O.2   1 <1>  -0.5700 
 12 N        6.0350     3.7600    -0.4760 N.am  1 <1>  -0.5470 
 13 C        5.1090     4.7270    -0.0730 C.ar  1 <1>   0.1170 
 14 C        4.8100     4.9240     1.2690 C.ar  1 <1>  -0.1500 
 15 C        4.4770     5.5150    -1.0260 C.ar  1 <1>  -0.1500 
 16 C        3.8840     5.8780     1.6480 C.ar  1 <1>  -0.1500 
 17 C        3.5510     6.4730    -0.6510 C.ar  1 <1>  -0.1500 
 18 C        3.2470     6.6570     0.6950 C.ar  1 <1>   0.0820 
 19 O        2.3500     7.5690     1.1520 O.3   1 <1>  -0.3620 
 20 C        1.6850     8.4430     0.2670 C.3   1 <1>   0.0400 
 21 H       -1.8320    -2.4130     1.4070 H     1 <1>   0.1500 
 22 H       -1.4390     1.8190     0.5670 H     1 <1>   0.1500 
 23 H        0.8560     1.9980    -0.9230 H     1 <1>   0.0800 
 24 H        1.3120     0.4780    -1.6420 H     1 <1>   0.0800 
 25 H       -2.9040     0.0450     1.6250 H     1 <1>   0.1500 
 26 H        2.6940    -0.0450     0.3490 H     1 <1>   0.0800 
 27 H        2.1990     1.4530     1.0880 H     1 <1>   0.0800 
 28 H        3.2710     2.7130    -0.7660 H     1 <1>   0.0800 
 29 H        3.7820     1.2130    -1.4920 H     1 <1>   0.0800 
 30 H        5.1240     0.6840     0.5130 H     1 <1>   0.0800 
 31 H        4.6280     2.1640     1.2610 H     1 <1>   0.0800 
 32 H        6.8390     4.0880    -1.0130 H     1 <1>   0.3700 
 33 H        5.3060     4.3340     2.0180 H     1 <1>   0.1500 
 34 H        4.7080     5.3730    -2.0660 H     1 <1>   0.1500 
 35 H        3.6490     6.0290     2.6860 H     1 <1>   0.1500 
 36 H        3.0780     7.0620    -1.4150 H     1 <1>   0.1500 
 37 H        1.0430     9.0810     0.8480 H     1 <1>   0.0800 
 38 H        1.0960     7.8620    -0.4200 H     1 <1>   0.0800 
 39 H        2.4150     9.0360    -0.2530 H     1 <1>   0.0800 
@<TRIPOS>BOND
  1   1   2  1   
  2   1   3  1   
  3   2   4  2   
  4   2   5  1   
  5   3   6  2   
  6   3  21  1   
  7   4   6  1   
  8   4  22  1   
  9   5   7  1   
 10   5  23  1   
 11   5  24  1   
 12   6  25  1   
 13   7   8  1   
 14   7  26  1   
 15   7  27  1   
 16   8   9  1   
 17   8  28  1   
 18   8  29  1   
 19   9  10  1   
 20   9  30  1   
 21   9  31  1   
 22  10  11  2   
 23  10  12  am  
 24  12  13  1   
 25  12  32  1   
 26  13  14  ar  
 27  13  15  ar  
 28  14  16  ar  
 29  14  33  1   
 30  15  17  ar  
 31  15  34  1   
 32  16  18  ar  
 33  16  35  1   
 34  17  18  ar  
 35  17  36  1   
 36  18  19  1   
 37  19  20  1   
 38  20  37  1   
 39  20  38  1   
 40  20  39  1   
@<TRIPOS>SUBSTRUCTURE
  1 ****   8 GROUP 4 **** **** 0

# MOE 2024.06 (io_trps.svl 2023.06)
