@<TRIPOS>MOLECULE
5,6,8-Trimethyl-3-(2-morpholin-4-yl-ethylsulfanyl)-5H-[1,2,4]triazino[5,6-b]indo
49 52 1 0 0 
SMALL
USER_CHARGES


@<TRIPOS>ATOM
  1 S       -0.5360     0.5480     0.2720 S.3   1 <1>  -0.3320 
  2 C       -2.2750     0.9440     0.1060 C.ar  1 <1>   0.7220 
  3 C       -0.4850    -1.2350     0.7430 C.3   1 <1>   0.0700 
  4 N       -2.5290     2.1890    -0.3480 N.ar  1 <1>  -0.3100 
  5 N       -3.1250    -0.0070     0.4150 N.ar  1 <1>  -0.5670 
  6 C       -0.8510    -2.0470    -0.5040 C.3   1 <1>   0.3430 
  7 N       -3.7600     2.5700    -0.5240 N.ar  1 <1>  -0.2560 
  8 C       -4.3880     0.4110     0.2540 C.ar  1 <1>   0.1050 
  9 N       -0.9340    -3.5140    -0.2250 N.4   1 <1>  -0.9590 
 10 C       -4.7030     1.6720    -0.2170 C.ar  1 <1>   0.2560 
 11 N       -5.5510    -0.2760     0.5100 N.pl3 1 <1>   0.0480 
 12 C        0.3610    -4.1510     0.2030 C.3   1 <1>   0.3430 
 13 C       -1.5210    -4.2750    -1.3800 C.3   1 <1>   0.3430 
 14 C       -6.1160     1.7580    -0.2750 C.ar  1 <1>   0.0000 
 15 C       -6.6270     0.5410     0.1750 C.ar  1 <1>  -0.1520 
 16 C       -5.6120    -1.5700     1.2180 C.3   1 <1>   0.0160 
 17 C        0.1850    -5.6690     0.4470 C.3   1 <1>   0.1200 
 18 C       -1.6130    -5.7880    -1.0680 C.3   1 <1>   0.1200 
 19 C       -6.9650     2.7880    -0.6770 C.ar  1 <1>  -0.1500 
 20 C       -8.0170     0.3450     0.2130 C.ar  1 <1>  -0.1430 
 21 O       -1.1420    -6.0670     0.2230 O.3   1 <1>  -0.5600 
 22 C       -8.3270     2.5980    -0.6340 C.ar  1 <1>  -0.1430 
 23 C       -8.8400     1.3780    -0.1900 C.ar  1 <1>  -0.1500 
 24 C       -8.6520    -0.9580     0.6730 C.3   1 <1>  -0.0970 
 25 C       -9.2830     3.6960    -1.0630 C.3   1 <1>  -0.0970 
 26 H       -1.1870    -1.3740     1.5460 H     1 <1>   0.0800 
 27 H        0.5180    -1.4320     1.0750 H     1 <1>   0.0800 
 28 H       -0.1180    -1.8620    -1.2730 H     1 <1>   0.0800 
 29 H       -1.8060    -1.7020    -0.8660 H     1 <1>   0.0800 
 30 H       -1.5880    -3.6840     0.5550 H     1 <1>   0.4500 
 31 H        0.7200    -3.6940     1.1100 H     1 <1>   0.0800 
 32 H        1.1140    -4.0040    -0.5540 H     1 <1>   0.0800 
 33 H       -0.9160    -4.1370    -2.2610 H     1 <1>   0.0800 
 34 H       -2.5080    -3.9040    -1.6040 H     1 <1>   0.0800 
 35 H       -4.6220    -1.8960     1.4740 H     1 <1>   0.0800 
 36 H       -6.0760    -2.3030     0.5840 H     1 <1>   0.0800 
 37 H       -6.1830    -1.4530     2.1210 H     1 <1>   0.0800 
 38 H        0.4330    -5.9130     1.4660 H     1 <1>   0.0800 
 39 H        0.8300    -6.2390    -0.2000 H     1 <1>   0.0800 
 40 H       -1.0380    -6.3600    -1.7770 H     1 <1>   0.0800 
 41 H       -2.6360    -6.1180    -1.1230 H     1 <1>   0.0800 
 42 H       -6.5350     3.7140    -1.0150 H     1 <1>   0.1500 
 43 H       -9.9090     1.2550    -0.1690 H     1 <1>   0.1500 
 44 H       -8.2850    -1.7770     0.0830 H     1 <1>   0.0800 
 45 H       -9.7210    -0.9230     0.5590 H     1 <1>   0.0800 
 46 H       -8.4360    -1.1300     1.7110 H     1 <1>   0.0800 
 47 H       -8.7460     4.5730    -1.3770 H     1 <1>   0.0800 
 48 H       -9.9260     3.9630    -0.2430 H     1 <1>   0.0800 
 49 H       -9.8890     3.3530    -1.8830 H     1 <1>   0.0800 
@<TRIPOS>BOND
  1   1   2  1   
  2   1   3  1   
  3   2   4  ar  
  4   2   5  ar  
  5   3   6  1   
  6   3  26  1   
  7   3  27  1   
  8   4   7  ar  
  9   5   8  ar  
 10   6   9  1   
 11   6  28  1   
 12   6  29  1   
 13   7  10  ar  
 14   8  10  ar  
 15   8  11  1   
 16   9  12  1   
 17   9  13  1   
 18   9  30  1   
 19  10  14  1   
 20  11  15  1   
 21  11  16  1   
 22  12  17  1   
 23  12  31  1   
 24  12  32  1   
 25  13  18  1   
 26  13  33  1   
 27  13  34  1   
 28  14  15  ar  
 29  14  19  ar  
 30  15  20  ar  
 31  16  35  1   
 32  16  36  1   
 33  16  37  1   
 34  17  21  1   
 35  17  38  1   
 36  17  39  1   
 37  18  21  1   
 38  18  40  1   
 39  18  41  1   
 40  19  22  ar  
 41  19  42  1   
 42  20  23  ar  
 43  20  24  1   
 44  22  23  ar  
 45  22  25  1   
 46  23  43  1   
 47  24  44  1   
 48  24  45  1   
 49  24  46  1   
 50  25  47  1   
 51  25  48  1   
 52  25  49  1   
@<TRIPOS>SUBSTRUCTURE
  1 ****   8 GROUP 4 **** **** 0

# MOE 2024.06 (io_trps.svl 2023.06)
