@<TRIPOS>MOLECULE
1-(3-Chloro-4-ethoxy-benzenesulfonyl)-piperidine-4-carboxylic acid cyclopropylam
48 50 1 0 0 
SMALL
USER_CHARGES


@<TRIPOS>ATOM
  1 CL       0.0840    -0.0560    -1.3780 Cl    1 <1>  -0.1770 
  2 C        0.3530     1.6120    -0.9140 C.ar  1 <1>   0.1770 
  3 C       -0.1890     2.1760     0.2440 C.ar  1 <1>   0.0830 
  4 C        1.1660     2.3570    -1.7500 C.ar  1 <1>  -0.1500 
  5 O       -1.0040     1.5480     1.1300 O.3   1 <1>  -0.3630 
  6 C        0.1270     3.4910     0.5420 C.ar  1 <1>  -0.1500 
  7 C        1.4790     3.6790    -1.4580 C.ar  1 <1>  -0.0090 
  8 C       -2.0200     0.6730     0.6970 C.3   1 <1>   0.1200 
  9 C        0.9440     4.2300    -0.2980 C.ar  1 <1>  -0.1500 
 10 S        2.5440     4.6580    -2.5540 S.o2  1 <1>   1.4470 
 11 C       -3.1380     0.7000     1.7360 C.3   1 <1>  -0.2400 
 12 O        3.3380     3.7800    -3.3870 O.2   1 <1>  -0.6500 
 13 O        1.7500     5.6950    -3.1750 O.2   1 <1>  -0.6500 
 14 N        3.6200     5.4120    -1.4810 N.am  1 <1>  -0.8490 
 15 C        4.2760     6.5650    -2.1020 C.3   1 <1>   0.1960 
 16 C        4.5960     4.4690    -0.9270 C.3   1 <1>   0.1960 
 17 C        5.1180     7.3180    -1.0680 C.3   1 <1>  -0.1600 
 18 C        5.4350     5.1520     0.1540 C.3   1 <1>  -0.1600 
 19 C        6.1500     6.3960    -0.3990 C.3   1 <1>  -0.0190 
 20 C        6.9350     7.1320     0.6860 C.2   1 <1>   0.5690 
 21 O        6.3670     7.4720     1.6970 O.2   1 <1>  -0.5700 
 22 N        8.2550     7.3820     0.4740 N.am  1 <1>  -0.5790 
 23 C        9.1500     8.0760     1.4100 C.3   1 <1>   0.0490 
 24 C       10.2210     8.9460     0.8410 C.3   1 <1>  -0.2000 
 25 C       10.5740     7.6340     1.4760 C.3   1 <1>  -0.2000 
 26 H        1.5650     1.8960    -2.6370 H     1 <1>   0.1500 
 27 H       -0.2750     3.9360     1.4350 H     1 <1>   0.1500 
 28 H       -1.6060    -0.3160     0.6180 H     1 <1>   0.0800 
 29 H       -2.3830     1.0050    -0.2610 H     1 <1>   0.0800 
 30 H        1.1720     5.2540    -0.0500 H     1 <1>   0.1500 
 31 H       -2.7630     0.3750     2.6900 H     1 <1>   0.0800 
 32 H       -3.9290     0.0380     1.4350 H     1 <1>   0.0800 
 33 H       -3.5360     1.6940     1.8240 H     1 <1>   0.0800 
 34 H        3.5330     7.2420    -2.4920 H     1 <1>   0.0800 
 35 H        4.8930     6.2370    -2.9230 H     1 <1>   0.0800 
 36 H        5.2380     4.0990    -1.7110 H     1 <1>   0.0800 
 37 H        4.0830     3.6280    -0.4900 H     1 <1>   0.0800 
 38 H        4.4600     7.7280    -0.3210 H     1 <1>   0.0800 
 39 H        5.6190     8.1400    -1.5470 H     1 <1>   0.0800 
 40 H        6.1600     4.4560     0.5380 H     1 <1>   0.0800 
 41 H        4.7880     5.4320     0.9680 H     1 <1>   0.0800 
 42 H        6.8430     6.0690    -1.1540 H     1 <1>   0.0800 
 43 H        8.6960     7.0840    -0.3940 H     1 <1>   0.3700 
 44 H        8.6610     8.3860     2.3210 H     1 <1>   0.1000 
 45 H       10.4800     9.8500     1.3640 H     1 <1>   0.1000 
 46 H       10.2980     9.0500    -0.2270 H     1 <1>   0.1000 
 47 H       10.8970     6.8190     0.8530 H     1 <1>   0.1000 
 48 H       11.0720     7.6490     2.4300 H     1 <1>   0.1000 
@<TRIPOS>BOND
  1   1   2  1   
  2   2   3  ar  
  3   2   4  ar  
  4   3   5  1   
  5   3   6  ar  
  6   4   7  ar  
  7   4  26  1   
  8   5   8  1   
  9   6   9  ar  
 10   6  27  1   
 11   7   9  ar  
 12   7  10  1   
 13   8  11  1   
 14   8  28  1   
 15   8  29  1   
 16   9  30  1   
 17  10  12  2   
 18  10  13  2   
 19  10  14  am  
 20  11  31  1   
 21  11  32  1   
 22  11  33  1   
 23  14  15  1   
 24  14  16  1   
 25  15  17  1   
 26  15  34  1   
 27  15  35  1   
 28  16  18  1   
 29  16  36  1   
 30  16  37  1   
 31  17  19  1   
 32  17  38  1   
 33  17  39  1   
 34  18  19  1   
 35  18  40  1   
 36  18  41  1   
 37  19  20  1   
 38  19  42  1   
 39  20  21  2   
 40  20  22  am  
 41  22  23  1   
 42  22  43  1   
 43  23  24  1   
 44  23  25  1   
 45  23  44  1   
 46  24  25  1   
 47  24  45  1   
 48  24  46  1   
 49  25  47  1   
 50  25  48  1   
@<TRIPOS>SUBSTRUCTURE
  1 ****  16 GROUP 4 **** **** 0

# MOE 2024.06 (io_trps.svl 2023.06)
