@<TRIPOS>MOLECULE
2-(4-Cyclohexyl-5-methyl-4H-[1,2,4]triazol-3-ylsulfanyl)-1-(2-methyl-1H-indol-3-
50 53 1 0 0 
SMALL
USER_CHARGES


@<TRIPOS>ATOM
  1 S        1.0150     0.4410    -0.7280 S.3   1 <1>  -0.2860 
  2 C        0.3110     1.4690     0.5690 C.2   1 <1>   0.2420 
  3 C        1.6180    -1.0630     0.1840 C.3   1 <1>   0.1310 
  4 N       -0.1440     0.9910     1.6710 N.2   1 <1>  -0.3380 
  5 N        0.2480     2.8010     0.4880 N.pl3 1 <1>   0.0480 
  6 C        3.1030    -1.2770    -0.0620 C.2   1 <1>   0.5950 
  7 N       -0.5230     2.0460     2.3930 N.2   1 <1>  -0.3380 
  8 C       -0.2820     3.1040     1.6910 C.2   1 <1>   0.0060 
  9 C        0.7470     3.6340    -0.6440 C.3   1 <1>   0.1760 
 10 O        3.4370    -2.4050    -0.3440 O.2   1 <1>  -0.5700 
 11 C        4.0330    -0.1770     0.0050 C.2   1 <1>  -0.0860 
 12 C       -0.5730     4.4960     2.2190 C.3   1 <1>  -0.0600 
 13 C        2.1080     4.2600    -0.3030 C.3   1 <1>  -0.1600 
 14 C       -0.2690     4.6960    -1.1010 C.3   1 <1>  -0.1600 
 15 C        4.0090     0.8990     0.9460 C.ar  1 <1>   0.0000 
 16 C        5.1130     0.0680    -0.8100 C.2   1 <1>  -0.3320 
 17 C        2.6510     5.0790    -1.4830 C.3   1 <1>  -0.1600 
 18 C        0.2810     5.4930    -2.2930 C.3   1 <1>  -0.1600 
 19 C        5.0590     1.7510     0.6190 C.ar  1 <1>  -0.1520 
 20 C        3.2160     1.2250     2.0540 C.ar  1 <1>  -0.1500 
 21 N        5.7270     1.2180    -0.4480 N.pl3 1 <1>   0.0330 
 22 C        5.6290    -0.7520    -1.9820 C.3   1 <1>  -0.0600 
 23 C        1.6350     6.1310    -1.9510 C.3   1 <1>  -0.1600 
 24 C        5.3070     2.9250     1.3330 C.ar  1 <1>  -0.1500 
 25 C        3.4510     2.3830     2.7590 C.ar  1 <1>  -0.1500 
 26 C        4.4960     3.2370     2.3980 C.ar  1 <1>  -0.1500 
 27 H        1.0560    -1.8950    -0.1960 H     1 <1>   0.0800 
 28 H        1.4150    -0.9490     1.2290 H     1 <1>   0.0800 
 29 H        0.9010     2.9800    -1.4840 H     1 <1>   0.0800 
 30 H        0.2620     5.1500     2.0560 H     1 <1>   0.0800 
 31 H       -0.7620     4.4480     3.2770 H     1 <1>   0.0800 
 32 H       -1.4480     4.8960     1.7410 H     1 <1>   0.0800 
 33 H        2.8080     3.4770    -0.0710 H     1 <1>   0.0800 
 34 H        2.0180     4.8980     0.5560 H     1 <1>   0.0800 
 35 H       -0.4710     5.3900    -0.3070 H     1 <1>   0.0800 
 36 H       -1.1900     4.2180    -1.3850 H     1 <1>   0.0800 
 37 H        2.8770     4.4150    -2.3010 H     1 <1>   0.0800 
 38 H        3.5670     5.5640    -1.1930 H     1 <1>   0.0800 
 39 H       -0.4200     6.2640    -2.5670 H     1 <1>   0.0800 
 40 H        0.3980     4.8390    -3.1400 H     1 <1>   0.0800 
 41 H        2.4220     0.5750     2.3660 H     1 <1>   0.1500 
 42 H        6.5570     1.6320    -0.8830 H     1 <1>   0.2700 
 43 H        4.9740    -1.5760    -2.1990 H     1 <1>   0.0800 
 44 H        6.6030    -1.1460    -1.7550 H     1 <1>   0.0800 
 45 H        5.6970    -0.1390    -2.8630 H     1 <1>   0.0800 
 46 H        2.0210     6.6410    -2.8170 H     1 <1>   0.0800 
 47 H        1.4990     6.8640    -1.1740 H     1 <1>   0.0800 
 48 H        6.1220     3.5670     1.0500 H     1 <1>   0.1500 
 49 H        2.8280     2.6340     3.6000 H     1 <1>   0.1500 
 50 H        4.6620     4.1360     2.9660 H     1 <1>   0.1500 
@<TRIPOS>BOND
  1   1   2  1   
  2   1   3  1   
  3   2   4  2   
  4   2   5  1   
  5   3   6  1   
  6   3  27  1   
  7   3  28  1   
  8   4   7  1   
  9   5   8  1   
 10   5   9  1   
 11   6  10  2   
 12   6  11  1   
 13   7   8  2   
 14   8  12  1   
 15   9  13  1   
 16   9  14  1   
 17   9  29  1   
 18  11  15  1   
 19  11  16  2   
 20  12  30  1   
 21  12  31  1   
 22  12  32  1   
 23  13  17  1   
 24  13  33  1   
 25  13  34  1   
 26  14  18  1   
 27  14  35  1   
 28  14  36  1   
 29  15  19  ar  
 30  15  20  ar  
 31  16  21  1   
 32  16  22  1   
 33  17  23  1   
 34  17  37  1   
 35  17  38  1   
 36  18  23  1   
 37  18  39  1   
 38  18  40  1   
 39  19  21  1   
 40  19  24  ar  
 41  20  25  ar  
 42  20  41  1   
 43  21  42  1   
 44  22  43  1   
 45  22  44  1   
 46  22  45  1   
 47  23  46  1   
 48  23  47  1   
 49  24  26  ar  
 50  24  48  1   
 51  25  26  ar  
 52  25  49  1   
 53  26  50  1   
@<TRIPOS>SUBSTRUCTURE
  1 ****  15 GROUP 4 **** **** 0

# MOE 2024.06 (io_trps.svl 2023.06)
