@<TRIPOS>MOLECULE
8-(3,5-Dimethyl-phenyl)-3-(3-hydroxy-propyl)-1,6-dimethyl-5,6,7,8-tetrahydro-1H-
57 60 1 0 0 
SMALL
USER_CHARGES


@<TRIPOS>ATOM
  1 O        1.1150     0.5520    -2.2590 O.2   1 <1>  -0.5740 
  2 C        1.9880     1.1830    -1.6980 C.2   1 <1>   0.6870 
  3 N        1.7190     2.4550    -1.2000 N.am  1 <1>  -0.4250 
  4 N        3.2520     0.6270    -1.5480 N.am  1 <1>  -0.4410 
  5 C        2.6890     3.1820    -0.5240 C.2   1 <1>   0.7000 
  6 C        0.3520     3.0330    -1.3720 C.3   1 <1>   0.1340 
  7 C        4.2040     1.3530    -0.8590 C.2   1 <1>   0.4210 
  8 C        3.5620    -0.7310    -2.0870 C.3   1 <1>   0.0530 
  9 O        2.4540     4.2970    -0.0900 O.2   1 <1>  -0.5740 
 10 C        3.9770     2.5840    -0.3510 C.2   1 <1>   0.2710 
 11 C       -0.5500     2.6090    -0.2100 C.3   1 <1>  -0.1660 
 12 N        5.4850     0.9910    -0.5650 N.pl3 1 <1>  -0.7030 
 13 N        5.1730     2.9770     0.2670 N.pl3 1 <1>  -0.7670 
 14 C       -1.9510     3.1910    -0.3800 C.3   1 <1>   0.1130 
 15 C        6.0430     1.9880     0.1170 C.cat 1 <1>   1.0690 
 16 C        5.4530     4.2420     0.9800 C.3   1 <1>   0.3490 
 17 O       -2.7130     2.8030     0.7030 O.3   1 <1>  -0.6830 
 18 N        7.2950     2.0270     0.6030 N.pl3 1 <1>  -0.5790 
 19 C        6.9760     4.4680     1.0350 C.3   1 <1>  -0.0870 
 20 C        8.1990     0.9810     0.4100 C.ar  1 <1>   0.3060 
 21 C        7.7280     3.1820     1.4360 C.3   1 <1>   0.1610 
 22 C        7.3260     5.6160     1.9950 C.3   1 <1>  -0.2460 
 23 C        8.4490     0.0710     1.4280 C.ar  1 <1>  -0.1560 
 24 C        8.8260     0.8210    -0.8180 C.ar  1 <1>  -0.1560 
 25 C        9.3010    -0.9980     1.2190 C.ar  1 <1>  -0.1500 
 26 C        9.6770    -0.2470    -1.0390 C.ar  1 <1>  -0.1500 
 27 C        9.9080    -1.1520    -0.0160 C.ar  1 <1>  -0.1560 
 28 C        9.5830    -2.0020     2.3230 C.3   1 <1>  -0.1030 
 29 C       10.3660    -0.4290    -2.3800 C.3   1 <1>  -0.1030 
 30 H       -0.0710     2.6960    -2.3040 H     1 <1>   0.0730 
 31 H        0.4090     4.1080    -1.4160 H     1 <1>   0.0730 
 32 H        2.8830    -0.9860    -2.8840 H     1 <1>   0.0730 
 33 H        3.4620    -1.4630    -1.3050 H     1 <1>   0.0730 
 34 H        4.5620    -0.7600    -2.4810 H     1 <1>   0.0730 
 35 H       -0.1340     2.9720     0.7140 H     1 <1>   0.0730 
 36 H       -0.6150     1.5360    -0.1830 H     1 <1>   0.0730 
 37 H        5.9660     0.1230    -0.7920 H     1 <1>   0.4450 
 38 H       -2.4260     2.8290    -1.2770 H     1 <1>   0.0730 
 39 H       -1.9260     4.2680    -0.3950 H     1 <1>   0.0730 
 40 H        5.0490     4.1810     1.9770 H     1 <1>   0.0730 
 41 H        4.9790     5.0660     0.4720 H     1 <1>   0.0730 
 42 H       -2.8090     1.8310     0.7260 H     1 <1>   0.3950 
 43 H        7.3080     4.7580     0.0530 H     1 <1>   0.0730 
 44 H        8.7890     3.3350     1.3140 H     1 <1>   0.0730 
 45 H        7.5410     2.9540     2.4720 H     1 <1>   0.0730 
 46 H        7.0230     5.3850     3.0020 H     1 <1>   0.0730 
 47 H        6.8340     6.5240     1.6900 H     1 <1>   0.0730 
 48 H        8.3870     5.7970     1.9920 H     1 <1>   0.0730 
 49 H        7.9740     0.1990     2.3830 H     1 <1>   0.1440 
 50 H        8.6520     1.5350    -1.6020 H     1 <1>   0.1440 
 51 H       10.5740    -1.9830    -0.1810 H     1 <1>   0.1440 
 52 H        9.0880    -1.7260     3.2370 H     1 <1>   0.0730 
 53 H       10.6410    -2.0510     2.5110 H     1 <1>   0.0730 
 54 H        9.2400    -2.9780     2.0280 H     1 <1>   0.0730 
 55 H        9.8630     0.1240    -3.1520 H     1 <1>   0.0730 
 56 H       10.3740    -1.4680    -2.6570 H     1 <1>   0.0730 
 57 H       11.3830    -0.0830    -2.3150 H     1 <1>   0.0730 
@<TRIPOS>BOND
  1   1   2  2   
  2   2   3  am  
  3   2   4  am  
  4   3   5  am  
  5   3   6  1   
  6   4   7  1   
  7   4   8  1   
  8   5   9  2   
  9   5  10  1   
 10   6  11  1   
 11   6  30  1   
 12   6  31  1   
 13   7  10  2   
 14   7  12  1   
 15   8  32  1   
 16   8  33  1   
 17   8  34  1   
 18  10  13  1   
 19  11  14  1   
 20  11  35  1   
 21  11  36  1   
 22  12  15  ar  
 23  12  37  1   
 24  13  15  ar  
 25  13  16  1   
 26  14  17  1   
 27  14  38  1   
 28  14  39  1   
 29  15  18  ar  
 30  16  19  1   
 31  16  40  1   
 32  16  41  1   
 33  17  42  1   
 34  18  20  1   
 35  18  21  1   
 36  19  21  1   
 37  19  22  1   
 38  19  43  1   
 39  20  23  ar  
 40  20  24  ar  
 41  21  44  1   
 42  21  45  1   
 43  22  46  1   
 44  22  47  1   
 45  22  48  1   
 46  23  25  ar  
 47  23  49  1   
 48  24  26  ar  
 49  24  50  1   
 50  25  27  ar  
 51  25  28  1   
 52  26  27  ar  
 53  26  29  1   
 54  27  51  1   
 55  28  52  1   
 56  28  53  1   
 57  28  54  1   
 58  29  55  1   
 59  29  56  1   
 60  29  57  1   
@<TRIPOS>SUBSTRUCTURE
  1 ****  12 GROUP 4 **** **** 0

# MOE 2024.06 (io_trps.svl 2023.06)
