@<TRIPOS>MOLECULE
N-Cyclohexyl-3-[3-(3,4-dimethoxy-phenyl)-[1,2,4]oxadiazol-5-yl]-propionamide
51 53 1 0 0 
SMALL
USER_CHARGES


@<TRIPOS>ATOM
  1 O       -0.2440    -0.3310    -1.3450 O.2   1 <1>  -0.5700 
  2 C        0.2950    -1.1260    -0.6170 C.2   1 <1>   0.5690 
  3 N        1.4900    -0.8830    -0.0250 N.am  1 <1>  -0.7300 
  4 C       -0.3960    -2.4410    -0.3420 C.3   1 <1>  -0.0990 
  5 C        2.2790     0.3480    -0.1920 C.3   1 <1>   0.2200 
  6 C       -1.7190    -2.2150     0.4010 C.3   1 <1>   0.0200 
  7 C        3.6370    -0.0140    -0.8020 C.3   1 <1>  -0.1600 
  8 C        2.4440     1.0200     1.1760 C.3   1 <1>  -0.1600 
  9 C       -2.3830    -3.5310     0.7520 C.2   1 <1>   0.2980 
 10 C        4.5470     1.2190    -0.9000 C.3   1 <1>  -0.1600 
 11 C        3.3520     2.2550     1.0810 C.3   1 <1>  -0.1600 
 12 O       -1.8300    -4.2900     1.6620 O.3   1 <1>  -0.0190 
 13 N       -3.4470    -3.9850     0.2360 N.2   1 <1>  -0.5650 
 14 C        4.7130     1.8970     0.4670 C.3   1 <1>  -0.1600 
 15 N       -2.6120    -5.3210     1.7290 N.2   1 <1>  -0.4100 
 16 C       -3.5710    -5.1460     0.8890 C.2   1 <1>   0.4620 
 17 C       -4.6680    -6.0690     0.6490 C.ar  1 <1>   0.0540 
 18 C       -5.6510    -5.8140    -0.3060 C.ar  1 <1>  -0.1500 
 19 C       -4.7860    -7.2570     1.3710 C.ar  1 <1>  -0.1500 
 20 C       -6.7020    -6.6820    -0.5400 C.ar  1 <1>   0.0820 
 21 C       -5.8210    -8.1460     1.1480 C.ar  1 <1>  -0.1500 
 22 O       -7.5830    -6.2810    -1.4980 O.3   1 <1>  -0.3630 
 23 C       -6.7910    -7.8810     0.1850 C.ar  1 <1>   0.0820 
 24 C       -8.9660    -6.5130    -1.3400 C.3   1 <1>   0.0400 
 25 O       -7.8000    -8.7610    -0.0730 O.3   1 <1>  -0.3630 
 26 C       -7.8300   -10.0550     0.4900 C.3   1 <1>   0.0400 
 27 H        1.9200    -1.5850     0.5750 H     1 <1>   0.3700 
 28 H        0.2480    -3.0760     0.2380 H     1 <1>   0.0800 
 29 H       -0.5920    -2.9270    -1.2810 H     1 <1>   0.0800 
 30 H        1.7650     1.0250    -0.8560 H     1 <1>   0.0800 
 31 H       -2.3850    -1.6400    -0.2190 H     1 <1>   0.0800 
 32 H       -1.5450    -1.6600     1.3060 H     1 <1>   0.0800 
 33 H        3.4850    -0.4210    -1.7870 H     1 <1>   0.0800 
 34 H        4.1210    -0.7570    -0.1940 H     1 <1>   0.0800 
 35 H        2.8750     0.3220     1.8720 H     1 <1>   0.0800 
 36 H        1.4780     1.3180     1.5420 H     1 <1>   0.0800 
 37 H        4.1210     1.9220    -1.5960 H     1 <1>   0.0800 
 38 H        5.5120     0.9270    -1.2780 H     1 <1>   0.0800 
 39 H        3.4980     2.6730     2.0620 H     1 <1>   0.0800 
 40 H        2.8730     3.0030     0.4720 H     1 <1>   0.0800 
 41 H        5.3030     2.7910     0.3560 H     1 <1>   0.0800 
 42 H        5.2410     1.2350     1.1320 H     1 <1>   0.0800 
 43 H       -5.6020    -4.9100    -0.8870 H     1 <1>   0.1500 
 44 H       -4.0500    -7.4900     2.1220 H     1 <1>   0.1500 
 45 H       -5.8500    -9.0420     1.7370 H     1 <1>   0.1500 
 46 H       -9.4960    -5.8000    -1.9450 H     1 <1>   0.0800 
 47 H       -9.2290    -6.3880    -0.3050 H     1 <1>   0.0800 
 48 H       -9.1900    -7.5100    -1.6730 H     1 <1>   0.0800 
 49 H       -8.6730   -10.5790     0.0760 H     1 <1>   0.0800 
 50 H       -7.9420    -9.9700     1.5560 H     1 <1>   0.0800 
 51 H       -6.9200   -10.5680     0.2340 H     1 <1>   0.0800 
@<TRIPOS>BOND
  1   1   2  2   
  2   2   3  am  
  3   2   4  1   
  4   3   5  1   
  5   3  27  1   
  6   4   6  1   
  7   4  28  1   
  8   4  29  1   
  9   5   7  1   
 10   5   8  1   
 11   5  30  1   
 12   6   9  1   
 13   6  31  1   
 14   6  32  1   
 15   7  10  1   
 16   7  33  1   
 17   7  34  1   
 18   8  11  1   
 19   8  35  1   
 20   8  36  1   
 21   9  12  1   
 22   9  13  2   
 23  10  14  1   
 24  10  37  1   
 25  10  38  1   
 26  11  14  1   
 27  11  39  1   
 28  11  40  1   
 29  12  15  1   
 30  13  16  1   
 31  14  41  1   
 32  14  42  1   
 33  15  16  2   
 34  16  17  1   
 35  17  18  ar  
 36  17  19  ar  
 37  18  20  ar  
 38  18  43  1   
 39  19  21  ar  
 40  19  44  1   
 41  20  22  1   
 42  20  23  ar  
 43  21  23  ar  
 44  21  45  1   
 45  22  24  1   
 46  23  25  1   
 47  24  46  1   
 48  24  47  1   
 49  24  48  1   
 50  25  26  1   
 51  26  49  1   
 52  26  50  1   
 53  26  51  1   
@<TRIPOS>SUBSTRUCTURE
  1 ****   9 GROUP 4 **** **** 0

# MOE 2024.06 (io_trps.svl 2023.06)
