@<TRIPOS>MOLECULE
Ethyl-(1-methyl-piperidin-4-yl)-amine
30 30 1 0 0 
SMALL
USER_CHARGES


@<TRIPOS>ATOM
  1 N       -0.0380     0.1600    -0.3290 N.4   1 <1>  -0.9590 
  2 C        1.2790     0.7590     0.0370 C.3   1 <1>   0.3430 
  3 C       -1.1950     0.8250     0.3390 C.3   1 <1>   0.3430 
  4 C       -0.0390    -1.3090    -0.0200 C.3   1 <1>   0.2630 
  5 C        1.2890     2.2530    -0.2960 C.3   1 <1>  -0.1600 
  6 C       -1.2050     2.3180     0.0030 C.3   1 <1>  -0.1600 
  7 C        0.1210     2.9790     0.3810 C.3   1 <1>   0.4230 
  8 N        0.0800     4.4040    -0.0310 N.4   1 <1>  -0.9060 
  9 C        1.1770     5.2420     0.5150 C.3   1 <1>   0.3430 
 10 C        0.9590     6.6690     0.0380 C.3   1 <1>  -0.2400 
 11 H       -0.1610     0.2400    -1.3520 H     1 <1>   0.4500 
 12 H        2.0710     0.2630    -0.5040 H     1 <1>   0.0800 
 13 H        1.4600     0.6200     1.0920 H     1 <1>   0.0800 
 14 H       -1.1230     0.6910     1.4080 H     1 <1>   0.0800 
 15 H       -2.1180     0.3730     0.0090 H     1 <1>   0.0800 
 16 H        0.0850    -1.4740     1.0390 H     1 <1>   0.0800 
 17 H        0.7650    -1.8040    -0.5410 H     1 <1>   0.0800 
 18 H       -0.9700    -1.7580    -0.3290 H     1 <1>   0.0800 
 19 H        1.2430     2.3700    -1.3650 H     1 <1>   0.0800 
 20 H        2.2250     2.6580     0.0460 H     1 <1>   0.0800 
 21 H       -2.0090     2.7770     0.5510 H     1 <1>   0.0800 
 22 H       -1.4050     2.4340    -1.0490 H     1 <1>   0.0800 
 23 H        0.2430     2.9230     1.4530 H     1 <1>   0.0800 
 24 H       -0.8050     4.8280     0.2770 H     1 <1>   0.4500 
 25 H        0.0860     4.4880    -1.0560 H     1 <1>   0.4500 
 26 H        2.1350     4.8870     0.1660 H     1 <1>   0.0800 
 27 H        1.1710     5.2150     1.5940 H     1 <1>   0.0800 
 28 H        0.9890     6.7300    -1.0360 H     1 <1>   0.0800 
 29 H        1.7460     7.2940     0.4230 H     1 <1>   0.0800 
 30 H        0.0240     7.0610     0.3980 H     1 <1>   0.0800 
@<TRIPOS>BOND
  1   1   2  1   
  2   1   3  1   
  3   1   4  1   
  4   1  11  1   
  5   2   5  1   
  6   2  12  1   
  7   2  13  1   
  8   3   6  1   
  9   3  14  1   
 10   3  15  1   
 11   4  16  1   
 12   4  17  1   
 13   4  18  1   
 14   5   7  1   
 15   5  19  1   
 16   5  20  1   
 17   6   7  1   
 18   6  21  1   
 19   6  22  1   
 20   7   8  1   
 21   7  23  1   
 22   8   9  1   
 23   8  24  1   
 24   8  25  1   
 25   9  10  1   
 26   9  26  1   
 27   9  27  1   
 28  10  28  1   
 29  10  29  1   
 30  10  30  1   
@<TRIPOS>SUBSTRUCTURE
  1 ****   7 GROUP 4 **** **** 0

# MOE 2024.06 (io_trps.svl 2023.06)
