@<TRIPOS>MOLECULE
Azepan-1-yl-[1-(2,5-dimethoxy-benzenesulfonyl)-piperidin-4-yl]-methanone
58 60 1 0 0 
SMALL
USER_CHARGES


@<TRIPOS>ATOM
  1 S       -0.0880    -0.2730    -1.0290 S.o2  1 <1>   1.4470 
  2 O        0.4600    -1.4510    -1.6730 O.2   1 <1>  -0.6500 
  3 O       -0.7670     0.6980    -1.8620 O.2   1 <1>  -0.6500 
  4 N        1.2290     0.4970    -0.2890 N.am  1 <1>  -0.8490 
  5 C       -1.1800    -0.7960     0.3180 C.ar  1 <1>  -0.0090 
  6 C        2.0220     1.2490    -1.2630 C.3   1 <1>   0.1960 
  7 C        2.0470    -0.4290     0.4950 C.3   1 <1>   0.1960 
  8 C       -1.6670     0.1090     1.2570 C.ar  1 <1>   0.0830 
  9 C       -1.5680    -2.1270     0.4360 C.ar  1 <1>  -0.1500 
 10 C        3.1100     2.0560    -0.5520 C.3   1 <1>  -0.1600 
 11 C        3.1300     0.3350     1.2600 C.3   1 <1>  -0.1600 
 12 O       -1.3180     1.4100     1.1980 O.3   1 <1>  -0.3620 
 13 C       -2.4990    -0.3020     2.2880 C.ar  1 <1>  -0.1500 
 14 C       -2.4080    -2.5490     1.4620 C.ar  1 <1>   0.0830 
 15 C        4.0140     1.1470     0.3010 C.3   1 <1>  -0.0190 
 16 C       -2.2620     2.2890     0.6290 C.3   1 <1>   0.0400 
 17 C       -2.8690    -1.6290     2.3870 C.ar  1 <1>  -0.1500 
 18 O       -2.8180    -3.8330     1.6230 O.3   1 <1>  -0.3630 
 19 C        5.0970     1.9260     1.0590 C.2   1 <1>   0.5690 
 20 C       -2.4480    -4.8410     0.7070 C.3   1 <1>   0.0400 
 21 O        4.8150     3.0250     1.4810 O.2   1 <1>  -0.5700 
 22 N        6.3500     1.3940     1.2510 N.am  1 <1>  -0.6600 
 23 C        6.7790     0.0140     0.9010 C.3   1 <1>   0.1400 
 24 C        7.4320     2.2210     1.8430 C.3   1 <1>   0.1400 
 25 C        7.5080    -0.0210    -0.4490 C.3   1 <1>  -0.1600 
 26 C        8.1320     3.0660     0.7720 C.3   1 <1>  -0.1600 
 27 C        8.7240     0.9190    -0.5600 C.3   1 <1>  -0.1600 
 28 C        8.3280     2.4040    -0.6060 C.3   1 <1>  -0.1600 
 29 H        1.3850     1.9330    -1.7980 H     1 <1>   0.0800 
 30 H        2.4640     0.5720    -1.9760 H     1 <1>   0.0800 
 31 H        2.5030    -1.1590    -0.1550 H     1 <1>   0.0800 
 32 H        1.4250    -0.9490     1.2040 H     1 <1>   0.0800 
 33 H       -1.2010    -2.8280    -0.2910 H     1 <1>   0.1500 
 34 H        2.6360     2.7950     0.0720 H     1 <1>   0.0800 
 35 H        3.7050     2.5780    -1.2800 H     1 <1>   0.0800 
 36 H        3.7330    -0.3600     1.8160 H     1 <1>   0.0800 
 37 H        2.6580     0.9970     1.9660 H     1 <1>   0.0800 
 38 H       -2.8480     0.4170     3.0070 H     1 <1>   0.1500 
 39 H        4.4940     0.4710    -0.3800 H     1 <1>   0.0800 
 40 H       -1.8260     3.2710     0.5960 H     1 <1>   0.0800 
 41 H       -3.1480     2.2960     1.2390 H     1 <1>   0.0800 
 42 H       -2.4930     1.9590    -0.3680 H     1 <1>   0.0800 
 43 H       -3.5140    -1.9590     3.1820 H     1 <1>   0.1500 
 44 H       -2.9030    -5.7620     1.0240 H     1 <1>   0.0800 
 45 H       -1.3770    -4.9420     0.7110 H     1 <1>   0.0800 
 46 H       -2.8080    -4.5740    -0.2710 H     1 <1>   0.0800 
 47 H        5.9310    -0.6460     0.8710 H     1 <1>   0.0800 
 48 H        7.4350    -0.3580     1.6690 H     1 <1>   0.0800 
 49 H        8.1530     1.5830     2.3230 H     1 <1>   0.0800 
 50 H        7.0240     2.8690     2.6010 H     1 <1>   0.0800 
 51 H        6.8070     0.2040    -1.2330 H     1 <1>   0.0800 
 52 H        7.8450    -1.0290    -0.6120 H     1 <1>   0.0800 
 53 H        9.0910     3.3580     1.1610 H     1 <1>   0.0800 
 54 H        7.5640     3.9710     0.6350 H     1 <1>   0.0800 
 55 H        9.2310     0.6850    -1.4800 H     1 <1>   0.0800 
 56 H        9.4190     0.7390     0.2420 H     1 <1>   0.0800 
 57 H        9.0920     2.9530    -1.1300 H     1 <1>   0.0800 
 58 H        7.4220     2.5110    -1.1780 H     1 <1>   0.0800 
@<TRIPOS>BOND
  1   1   2  2   
  2   1   3  2   
  3   1   4  am  
  4   1   5  1   
  5   4   6  1   
  6   4   7  1   
  7   5   8  ar  
  8   5   9  ar  
  9   6  10  1   
 10   6  29  1   
 11   6  30  1   
 12   7  11  1   
 13   7  31  1   
 14   7  32  1   
 15   8  12  1   
 16   8  13  ar  
 17   9  14  ar  
 18   9  33  1   
 19  10  15  1   
 20  10  34  1   
 21  10  35  1   
 22  11  15  1   
 23  11  36  1   
 24  11  37  1   
 25  12  16  1   
 26  13  17  ar  
 27  13  38  1   
 28  14  17  ar  
 29  14  18  1   
 30  15  19  1   
 31  15  39  1   
 32  16  40  1   
 33  16  41  1   
 34  16  42  1   
 35  17  43  1   
 36  18  20  1   
 37  19  21  2   
 38  19  22  am  
 39  20  44  1   
 40  20  45  1   
 41  20  46  1   
 42  22  23  1   
 43  22  24  1   
 44  23  25  1   
 45  23  47  1   
 46  23  48  1   
 47  24  26  1   
 48  24  49  1   
 49  24  50  1   
 50  25  27  1   
 51  25  51  1   
 52  25  52  1   
 53  26  28  1   
 54  26  53  1   
 55  26  54  1   
 56  27  28  1   
 57  27  55  1   
 58  27  56  1   
 59  28  57  1   
 60  28  58  1   
@<TRIPOS>SUBSTRUCTURE
  1 ****   7 GROUP 4 **** **** 0

# MOE 2024.06 (io_trps.svl 2023.06)
