@<TRIPOS>MOLECULE
[8-(3-Chloro-2-methyl-phenyl)-1-methyl-2,4-dioxo-1,4,5,6,7,8-hexahydro-2H-1,3,4b
53 56 1 0 0 
SMALL
USER_CHARGES


@<TRIPOS>ATOM
  1 CL      -4.0530    -2.5290     2.4670 Cl    1 <1>  -0.1840 
  2 C       -3.9550    -1.5390     1.0300 C.ar  1 <1>   0.1700 
  3 C       -4.7490    -0.4080     0.9010 C.ar  1 <1>  -0.1510 
  4 C       -3.0740    -1.9340     0.0410 C.ar  1 <1>  -0.1570 
  5 C       -4.6620     0.3240    -0.2860 C.ar  1 <1>   0.3050 
  6 C       -5.6740    -0.0040     2.0540 C.3   1 <1>  -0.1040 
  7 C       -2.9750    -1.1910    -1.1190 C.ar  1 <1>  -0.1570 
  8 N       -5.4830     1.4320    -0.5270 N.pl3 1 <1>  -0.5800 
  9 C       -3.7680    -0.0690    -1.2770 C.ar  1 <1>  -0.1570 
 10 C       -6.7990     1.3170    -0.7880 C.cat 1 <1>   1.0690 
 11 C       -4.8610     2.7850    -0.4840 C.3   1 <1>   0.1610 
 12 N       -7.4880     0.1860    -0.9210 N.pl3 1 <1>  -0.7040 
 13 N       -7.6050     2.3590    -0.9350 N.pl3 1 <1>  -0.7670 
 14 C       -5.8830     3.8340    -0.0210 C.3   1 <1>  -0.1670 
 15 C       -8.7890     0.5160    -1.1510 C.2   1 <1>   0.4210 
 16 C       -8.8970     1.8630    -1.1640 C.2   1 <1>   0.2710 
 17 C       -7.1910     3.7710    -0.8200 C.3   1 <1>   0.3480 
 18 N       -9.8610    -0.3350    -1.3380 N.am  1 <1>  -0.4410 
 19 C      -10.1820     2.4530    -1.3720 C.2   1 <1>   0.6990 
 20 C      -11.1230     0.2280    -1.4740 C.2   1 <1>   0.6860 
 21 C       -9.6880    -1.8170    -1.3070 C.3   1 <1>   0.0530 
 22 O      -10.3230     3.6620    -1.4440 O.2   1 <1>  -0.5740 
 23 N      -11.2730     1.6080    -1.4920 N.am  1 <1>  -0.4250 
 24 O      -12.1000    -0.4850    -1.5700 O.2   1 <1>  -0.5740 
 25 C      -12.6330     2.1770    -1.2040 C.3   1 <1>   0.1940 
 26 C      -12.8740     2.3050     0.2970 C.2   1 <1>   0.6550 
 27 O      -11.9980     2.0910     1.1020 O.2   1 <1>  -0.5740 
 28 O      -14.0970     2.6680     0.6560 O.3   1 <1>  -0.4350 
 29 C      -14.4580     2.8200     2.0090 C.3   1 <1>   0.1130 
 30 C      -15.9220     3.2440     2.0640 C.3   1 <1>  -0.2460 
 31 H       -2.4720    -2.8150     0.1830 H     1 <1>   0.1430 
 32 H       -6.5410    -0.6410     2.0750 H     1 <1>   0.0730 
 33 H       -5.9940     1.0190     1.9850 H     1 <1>   0.0730 
 34 H       -5.1600    -0.1060     2.9940 H     1 <1>   0.0730 
 35 H       -2.2840    -1.4880    -1.8920 H     1 <1>   0.1430 
 36 H       -3.6910     0.5030    -2.1850 H     1 <1>   0.1430 
 37 H       -4.4980     3.0350    -1.4680 H     1 <1>   0.0730 
 38 H       -4.0210     2.7770     0.1920 H     1 <1>   0.0730 
 39 H       -7.0850    -0.7440    -0.8320 H     1 <1>   0.4450 
 40 H       -5.4570     4.8170    -0.1160 H     1 <1>   0.0730 
 41 H       -6.0980     3.6840     1.0230 H     1 <1>   0.0730 
 42 H       -7.9560     4.3450    -0.3220 H     1 <1>   0.0730 
 43 H       -7.0460     4.1790    -1.8070 H     1 <1>   0.0730 
 44 H       -9.6910    -2.1610    -0.2870 H     1 <1>   0.0730 
 45 H       -8.7640    -2.0980    -1.7800 H     1 <1>   0.0730 
 46 H      -10.4930    -2.3020    -1.8350 H     1 <1>   0.0730 
 47 H      -13.3980     1.5500    -1.6250 H     1 <1>   0.0730 
 48 H      -12.7290     3.1490    -1.6530 H     1 <1>   0.0730 
 49 H      -13.8230     3.5680     2.4520 H     1 <1>   0.0730 
 50 H      -14.3110     1.8770     2.5100 H     1 <1>   0.0730 
 51 H      -16.0570     4.1810     1.5530 H     1 <1>   0.0730 
 52 H      -16.2250     3.3670     3.0880 H     1 <1>   0.0730 
 53 H      -16.5440     2.4930     1.6110 H     1 <1>   0.0730 
@<TRIPOS>BOND
  1   1   2  1   
  2   2   3  ar  
  3   2   4  ar  
  4   3   5  ar  
  5   3   6  1   
  6   4   7  ar  
  7   4  31  1   
  8   5   8  1   
  9   5   9  ar  
 10   6  32  1   
 11   6  33  1   
 12   6  34  1   
 13   7   9  ar  
 14   7  35  1   
 15   8  10  ar  
 16   8  11  1   
 17   9  36  1   
 18  10  12  ar  
 19  10  13  ar  
 20  11  14  1   
 21  11  37  1   
 22  11  38  1   
 23  12  15  1   
 24  12  39  1   
 25  13  16  1   
 26  13  17  1   
 27  14  17  1   
 28  14  40  1   
 29  14  41  1   
 30  15  16  2   
 31  15  18  1   
 32  16  19  1   
 33  17  42  1   
 34  17  43  1   
 35  18  20  am  
 36  18  21  1   
 37  19  22  2   
 38  19  23  am  
 39  20  23  am  
 40  20  24  2   
 41  21  44  1   
 42  21  45  1   
 43  21  46  1   
 44  23  25  1   
 45  25  26  1   
 46  25  47  1   
 47  25  48  1   
 48  26  27  2   
 49  26  28  1   
 50  28  29  1   
 51  29  30  1   
 52  29  49  1   
 53  29  50  1   
 54  30  51  1   
 55  30  52  1   
 56  30  53  1   
@<TRIPOS>SUBSTRUCTURE
  1 ****  15 GROUP 4 **** **** 0

# MOE 2024.06 (io_trps.svl 2023.06)
