@<TRIPOS>MOLECULE
8-(4-Benzyl-piperazin-1-ylmethyl)-3-methyl-7-(2-oxo-propyl)-3,7-dihydro-purine-2
57 60 1 0 0 
SMALL
USER_CHARGES


@<TRIPOS>ATOM
  1 O        1.1290     0.0690    -1.9400 O.2   1 <1>  -0.5700 
  2 C        2.1990     0.6010    -1.7250 C.2   1 <1>   0.6900 
  3 N        3.3930     0.0810    -2.1860 N.am  1 <1>  -0.4230 
  4 N        2.2060     1.7550    -0.9970 N.am  1 <1>  -0.4900 
  5 C        4.5750     0.7620    -1.8920 C.2   1 <1>   0.2900 
  6 C        3.4620    -1.1580    -3.0020 C.3   1 <1>   0.0600 
  7 C        3.3400     2.4340    -0.6840 C.2   1 <1>   0.7150 
  8 N        5.8130     0.4090    -2.2510 N.2   1 <1>  -0.5650 
  9 C        4.5620     1.9060    -1.1730 C.2   1 <1>  -0.2370 
 10 O        3.2700     3.4350     0.0010 O.2   1 <1>  -0.5700 
 11 C        6.5610     1.3500    -1.7480 C.2   1 <1>   0.0060 
 12 N        5.8570     2.3030    -1.0820 N.pl3 1 <1>   0.0480 
 13 C        8.0860     1.3710    -1.8980 C.3   1 <1>   0.2900 
 14 C        6.3510     3.5130    -0.3850 C.3   1 <1>   0.1570 
 15 N        8.7060     0.1150    -1.4240 N.3   1 <1>  -0.8100 
 16 C        6.8370     3.1410     1.0000 C.2   1 <1>   0.4480 
 17 C       10.1500     0.0330    -1.7350 C.3   1 <1>   0.1100 
 18 C        8.4730    -0.1290     0.0220 C.3   1 <1>   0.1100 
 19 O        7.9810     2.8580     1.1920 O.2   1 <1>  -0.5700 
 20 C        5.8230     3.1230     2.1230 C.3   1 <1>  -0.1790 
 21 C       10.7580    -1.3250    -1.2940 C.3   1 <1>   0.3430 
 22 C        9.0370    -1.4950     0.4760 C.3   1 <1>   0.3430 
 23 N        9.7130    -2.1970    -0.6680 N.4   1 <1>  -0.9590 
 24 C       10.1440    -3.5830    -0.3660 C.3   1 <1>   0.4860 
 25 C        8.9370    -4.3780     0.0920 C.ar  1 <1>  -0.1430 
 26 C        8.8090    -4.7480     1.4230 C.ar  1 <1>  -0.1500 
 27 C        7.9460    -4.7320    -0.8130 C.ar  1 <1>  -0.1500 
 28 C        7.6980    -5.4560     1.8460 C.ar  1 <1>  -0.1500 
 29 C        6.8350    -5.4400    -0.3880 C.ar  1 <1>  -0.1500 
 30 C        6.7100    -5.8010     0.9410 C.ar  1 <1>  -0.1500 
 31 H        1.3160     2.1110    -0.6720 H     1 <1>   0.3700 
 32 H        2.4800    -1.5710    -3.1580 H     1 <1>   0.0800 
 33 H        4.0720    -1.8850    -2.4960 H     1 <1>   0.0800 
 34 H        3.9040    -0.9320    -3.9560 H     1 <1>   0.0800 
 35 H        8.5150     2.2020    -1.3660 H     1 <1>   0.0800 
 36 H        8.3080     1.4960    -2.9440 H     1 <1>   0.0800 
 37 H        5.5730     4.2490    -0.3230 H     1 <1>   0.0800 
 38 H        7.1630     3.9360    -0.9460 H     1 <1>   0.0800 
 39 H       10.6780     0.8350    -1.2460 H     1 <1>   0.0800 
 40 H       10.2930     0.1480    -2.7960 H     1 <1>   0.0800 
 41 H        7.4170    -0.1120     0.2330 H     1 <1>   0.0800 
 42 H        8.9350     0.6490     0.6050 H     1 <1>   0.0800 
 43 H        5.0960     2.3500     1.9520 H     1 <1>   0.0800 
 44 H        5.3200     4.0710     2.1840 H     1 <1>   0.0800 
 45 H        6.3170     2.9320     3.0580 H     1 <1>   0.0800 
 46 H       11.5570    -1.1450    -0.5950 H     1 <1>   0.0800 
 47 H       11.1770    -1.8140    -2.1570 H     1 <1>   0.0800 
 48 H        8.2220    -2.0960     0.8450 H     1 <1>   0.0800 
 49 H        9.7300    -1.3460     1.2860 H     1 <1>   0.0800 
 50 H        8.9570    -2.2300    -1.3710 H     1 <1>   0.4500 
 51 H       10.8950    -3.5780     0.4070 H     1 <1>   0.0800 
 52 H       10.5600    -4.0420    -1.2480 H     1 <1>   0.0800 
 53 H        9.5660    -4.4940     2.1450 H     1 <1>   0.1500 
 54 H        8.0210    -4.4660    -1.8540 H     1 <1>   0.1500 
 55 H        7.5980    -5.7430     2.8800 H     1 <1>   0.1500 
 56 H        6.0660    -5.7140    -1.0910 H     1 <1>   0.1500 
 57 H        5.8460    -6.3520     1.2700 H     1 <1>   0.1500 
@<TRIPOS>BOND
  1   1   2  2   
  2   2   3  am  
  3   2   4  am  
  4   3   5  1   
  5   3   6  1   
  6   4   7  am  
  7   4  31  1   
  8   5   8  1   
  9   5   9  2   
 10   6  32  1   
 11   6  33  1   
 12   6  34  1   
 13   7   9  1   
 14   7  10  2   
 15   8  11  2   
 16   9  12  1   
 17  11  12  1   
 18  11  13  1   
 19  12  14  1   
 20  13  15  1   
 21  13  35  1   
 22  13  36  1   
 23  14  16  1   
 24  14  37  1   
 25  14  38  1   
 26  15  17  1   
 27  15  18  1   
 28  16  19  2   
 29  16  20  1   
 30  17  21  1   
 31  17  39  1   
 32  17  40  1   
 33  18  22  1   
 34  18  41  1   
 35  18  42  1   
 36  20  43  1   
 37  20  44  1   
 38  20  45  1   
 39  21  23  1   
 40  21  46  1   
 41  21  47  1   
 42  22  23  1   
 43  22  48  1   
 44  22  49  1   
 45  23  24  1   
 46  23  50  1   
 47  24  25  1   
 48  24  51  1   
 49  24  52  1   
 50  25  26  ar  
 51  25  27  ar  
 52  26  28  ar  
 53  26  53  1   
 54  27  29  ar  
 55  27  54  1   
 56  28  30  ar  
 57  28  55  1   
 58  29  30  ar  
 59  29  56  1   
 60  30  57  1   
@<TRIPOS>SUBSTRUCTURE
  1 ****   8 GROUP 4 **** **** 0

# MOE 2024.06 (io_trps.svl 2023.06)
