@<TRIPOS>MOLECULE
N-Isopropyl-3-[3-(3-methoxy-phenyl)-[1,2,4]oxadiazol-5-yl]-propionamide
40 41 1 0 0 
SMALL
USER_CHARGES


@<TRIPOS>ATOM
  1 O        0.1230    -0.7830    -1.6530 O.2   1 <1>  -0.5700 
  2 C        0.5450    -1.7130    -1.0170 C.2   1 <1>   0.5690 
  3 N        1.7370    -1.6080    -0.3870 N.am  1 <1>  -0.7300 
  4 C       -0.2950    -2.9690    -0.9280 C.3   1 <1>  -0.0990 
  5 C        2.4470    -2.5660     0.4680 C.3   1 <1>   0.2200 
  6 C       -1.1850    -2.9350     0.3200 C.3   1 <1>   0.0200 
  7 C        2.8020    -1.8620     1.7720 C.3   1 <1>  -0.2400 
  8 C        3.6970    -3.0290    -0.2700 C.3   1 <1>  -0.2400 
  9 C       -1.9500    -4.2320     0.4830 C.2   1 <1>   0.2980 
 10 O       -1.2880    -5.3160     0.7920 O.3   1 <1>  -0.0190 
 11 N       -3.2010    -4.3780     0.3470 N.2   1 <1>  -0.5650 
 12 N       -2.1990    -6.2340     0.8560 N.2   1 <1>  -0.4100 
 13 C       -3.3340    -5.6850     0.5930 C.2   1 <1>   0.4620 
 14 C       -4.6180    -6.3660     0.5590 C.ar  1 <1>   0.0540 
 15 C       -5.7990    -5.6920     0.2480 C.ar  1 <1>  -0.1500 
 16 C       -4.7210    -7.7310     0.8370 C.ar  1 <1>  -0.1500 
 17 C       -7.0240    -6.3360     0.2130 C.ar  1 <1>   0.0820 
 18 C       -5.9370    -8.3880     0.8070 C.ar  1 <1>  -0.1500 
 19 O       -8.1040    -5.5770    -0.1020 O.3   1 <1>  -0.3630 
 20 C       -7.0930    -7.6960     0.4950 C.ar  1 <1>  -0.1500 
 21 C       -9.3980    -6.1320    -0.1650 C.3   1 <1>   0.0400 
 22 H        2.2240    -0.7220    -0.5350 H     1 <1>   0.3700 
 23 H        0.3410    -3.8330    -0.9240 H     1 <1>   0.0800 
 24 H       -0.9170    -3.0290    -1.8040 H     1 <1>   0.0800 
 25 H        1.8220    -3.4160     0.6850 H     1 <1>   0.0800 
 26 H       -1.8830    -2.1200     0.2370 H     1 <1>   0.0800 
 27 H       -0.5880    -2.7740     1.1990 H     1 <1>   0.0800 
 28 H        3.4400    -1.0150     1.5880 H     1 <1>   0.0800 
 29 H        3.3180    -2.5410     2.4260 H     1 <1>   0.0800 
 30 H        1.9080    -1.5300     2.2690 H     1 <1>   0.0800 
 31 H        4.3420    -2.1970    -0.4870 H     1 <1>   0.0800 
 32 H        3.4230    -3.5130    -1.1910 H     1 <1>   0.0800 
 33 H        4.2400    -3.7340     0.3330 H     1 <1>   0.0800 
 34 H       -5.7710    -4.6410     0.0260 H     1 <1>   0.1500 
 35 H       -3.8320    -8.2870     1.0820 H     1 <1>   0.1500 
 36 H       -5.9840    -9.4410     1.0260 H     1 <1>   0.1500 
 37 H       -8.0250    -8.2270     0.4780 H     1 <1>   0.1500 
 38 H      -10.0840    -5.3480    -0.4300 H     1 <1>   0.0800 
 39 H       -9.6540    -6.5310     0.8010 H     1 <1>   0.0800 
 40 H       -9.4120    -6.9000    -0.9180 H     1 <1>   0.0800 
@<TRIPOS>BOND
  1   1   2  2   
  2   2   3  am  
  3   2   4  1   
  4   3   5  1   
  5   3  22  1   
  6   4   6  1   
  7   4  23  1   
  8   4  24  1   
  9   5   7  1   
 10   5   8  1   
 11   5  25  1   
 12   6   9  1   
 13   6  26  1   
 14   6  27  1   
 15   7  28  1   
 16   7  29  1   
 17   7  30  1   
 18   8  31  1   
 19   8  32  1   
 20   8  33  1   
 21   9  10  1   
 22   9  11  2   
 23  10  12  1   
 24  11  13  1   
 25  12  13  2   
 26  13  14  1   
 27  14  15  ar  
 28  14  16  ar  
 29  15  17  ar  
 30  15  34  1   
 31  16  18  ar  
 32  16  35  1   
 33  17  19  1   
 34  17  20  ar  
 35  18  20  ar  
 36  18  36  1   
 37  19  21  1   
 38  20  37  1   
 39  21  38  1   
 40  21  39  1   
 41  21  40  1   
@<TRIPOS>SUBSTRUCTURE
  1 ****  11 GROUP 4 **** **** 0

# MOE 2024.06 (io_trps.svl 2023.06)
