@<TRIPOS>MOLECULE
N-(4-Bromo-phenyl)-2-(4-pyridin-2-yl-piperazin-1-yl)-acetamide
42 44 1 0 0 
SMALL
USER_CHARGES


@<TRIPOS>ATOM
  1 BR       1.1300    -0.5780    -3.2440 Br    1 <1>  -0.1110 
  2 C        2.6640    -1.0290    -2.1700 C.ar  1 <1>   0.1110 
  3 C        3.9190    -0.9750    -2.7440 C.ar  1 <1>  -0.1500 
  4 C        2.4720    -1.3950    -0.8520 C.ar  1 <1>  -0.1500 
  5 C        5.0160    -1.3010    -1.9650 C.ar  1 <1>  -0.1500 
  6 C        3.5800    -1.7180    -0.0870 C.ar  1 <1>  -0.1500 
  7 C        4.8640    -1.6730    -0.6310 C.ar  1 <1>   0.1170 
  8 N        6.0170    -1.9910     0.1010 N.am  1 <1>  -0.5470 
  9 C        6.2570    -2.2260     1.4250 C.2   1 <1>   0.5690 
 10 O        5.4170    -2.1950     2.2930 O.2   1 <1>  -0.5700 
 11 C        7.7070    -2.5420     1.7980 C.3   1 <1>   0.1710 
 12 N        8.7000    -2.0250     0.8090 N.3   1 <1>  -0.8100 
 13 C        8.8760    -0.5560     0.9510 C.3   1 <1>   0.1100 
 14 C       10.0120    -2.6920     0.9780 C.3   1 <1>   0.1100 
 15 C        9.9070     0.0100    -0.0460 C.3   1 <1>   0.2090 
 16 C       11.0620    -2.1700    -0.0220 C.3   1 <1>   0.2090 
 17 N       11.2150    -0.6880     0.0830 N.pl3 1 <1>  -0.8380 
 18 C       12.2790    -0.1060    -0.5750 C.ar  1 <1>   0.4100 
 19 N       12.6490    -0.6380    -1.7350 N.ar  1 <1>  -0.6200 
 20 C       12.9010     1.0060    -0.0130 C.ar  1 <1>  -0.1500 
 21 C       13.6620    -0.0450    -2.3450 C.ar  1 <1>   0.1600 
 22 C       13.9510     1.6140    -0.6590 C.ar  1 <1>  -0.1500 
 23 C       14.3370     1.0630    -1.8640 C.ar  1 <1>  -0.1500 
 24 H        4.0310    -0.6870    -3.7740 H     1 <1>   0.1500 
 25 H        1.4820    -1.4280    -0.4350 H     1 <1>   0.1500 
 26 H        5.9990    -1.2640    -2.3980 H     1 <1>   0.1500 
 27 H        3.4370    -2.0070     0.9380 H     1 <1>   0.1500 
 28 H        6.8960    -2.0080    -0.4260 H     1 <1>   0.3700 
 29 H        7.7870    -3.6120     1.8560 H     1 <1>   0.0800 
 30 H        7.9140    -2.1420     2.7750 H     1 <1>   0.0800 
 31 H        9.2060    -0.3230     1.9490 H     1 <1>   0.0800 
 32 H        7.9350    -0.0590     0.7900 H     1 <1>   0.0800 
 33 H        9.8970    -3.7510     0.8300 H     1 <1>   0.0800 
 34 H       10.3810    -2.5310     1.9770 H     1 <1>   0.0800 
 35 H       10.0400     1.0620     0.1360 H     1 <1>   0.0800 
 36 H        9.5380    -0.1120    -1.0500 H     1 <1>   0.0800 
 37 H       10.7620    -2.4300    -1.0220 H     1 <1>   0.0800 
 38 H       12.0120    -2.6380     0.1730 H     1 <1>   0.0800 
 39 H       12.5460     1.3710     0.9310 H     1 <1>   0.1500 
 40 H       13.9720    -0.4680    -3.2850 H     1 <1>   0.1500 
 41 H       14.4500     2.4740    -0.2460 H     1 <1>   0.1500 
 42 H       15.1510     1.4860    -2.4220 H     1 <1>   0.1500 
@<TRIPOS>BOND
  1   1   2  1   
  2   2   3  ar  
  3   2   4  ar  
  4   3   5  ar  
  5   3  24  1   
  6   4   6  ar  
  7   4  25  1   
  8   5   7  ar  
  9   5  26  1   
 10   6   7  ar  
 11   6  27  1   
 12   7   8  1   
 13   8   9  am  
 14   8  28  1   
 15   9  10  2   
 16   9  11  1   
 17  11  12  1   
 18  11  29  1   
 19  11  30  1   
 20  12  13  1   
 21  12  14  1   
 22  13  15  1   
 23  13  31  1   
 24  13  32  1   
 25  14  16  1   
 26  14  33  1   
 27  14  34  1   
 28  15  17  1   
 29  15  35  1   
 30  15  36  1   
 31  16  17  1   
 32  16  37  1   
 33  16  38  1   
 34  17  18  1   
 35  18  19  ar  
 36  18  20  ar  
 37  19  21  ar  
 38  20  22  ar  
 39  20  39  1   
 40  21  23  ar  
 41  21  40  1   
 42  22  23  ar  
 43  22  41  1   
 44  23  42  1   
@<TRIPOS>SUBSTRUCTURE
  1 ****  13 GROUP 4 **** **** 0

# MOE 2024.06 (io_trps.svl 2023.06)
