@<TRIPOS>MOLECULE
N-[1,3,4]Thiadiazol-2-yl-isobutyramide
20 20 1 0 0 
SMALL
USER_CHARGES


@<TRIPOS>ATOM
  1 S        0.1090     0.4400     0.4230 S.3   1 <1>  -0.0800 
  2 C        1.1740    -0.8880     0.0940 C.2   1 <1>   0.4420 
  3 C       -1.0790    -0.3790    -0.5280 C.2   1 <1>   0.2280 
  4 N        0.6220    -1.7820    -0.6430 N.2   1 <1>  -0.3380 
  5 N        2.4360    -0.8270     0.6430 N.am  1 <1>  -0.4940 
  6 N       -0.6660    -1.4860    -0.9950 N.2   1 <1>  -0.3380 
  7 C        3.5060    -1.6670     0.6000 C.2   1 <1>   0.5690 
  8 O        4.4810    -1.3610     1.2380 O.2   1 <1>  -0.5700 
  9 C        3.5040    -2.9730    -0.2140 C.3   1 <1>  -0.0190 
 10 C        2.8610    -4.1210     0.5830 C.3   1 <1>  -0.2400 
 11 C        4.9160    -3.3930    -0.6640 C.3   1 <1>  -0.2400 
 12 H       -2.0400     0.0880    -0.6500 H     1 <1>   0.1500 
 13 H        2.6270    -0.0130     1.2210 H     1 <1>   0.3700 
 14 H        2.9330    -2.8140    -1.1090 H     1 <1>   0.0800 
 15 H        3.4240    -4.3140     1.4790 H     1 <1>   0.0800 
 16 H        2.8320    -5.0180    -0.0100 H     1 <1>   0.0800 
 17 H        1.8530    -3.8670     0.8590 H     1 <1>   0.0800 
 18 H        5.5380    -3.6020     0.1890 H     1 <1>   0.0800 
 19 H        5.3730    -2.6010    -1.2310 H     1 <1>   0.0800 
 20 H        4.8690    -4.2730    -1.2810 H     1 <1>   0.0800 
@<TRIPOS>BOND
  1   1   2  1   
  2   1   3  1   
  3   2   4  2   
  4   2   5  1   
  5   3   6  2   
  6   3  12  1   
  7   4   6  1   
  8   5   7  am  
  9   5  13  1   
 10   7   8  2   
 11   7   9  1   
 12   9  10  1   
 13   9  11  1   
 14   9  14  1   
 15  10  15  1   
 16  10  16  1   
 17  10  17  1   
 18  11  18  1   
 19  11  19  1   
 20  11  20  1   
@<TRIPOS>SUBSTRUCTURE
  1 ****   5 GROUP 4 **** **** 0

# MOE 2024.06 (io_trps.svl 2023.06)
