@<TRIPOS>MOLECULE
1-(2-Fluoro-benzyl)-piperidine-4-carboxylic acid 4-methyl-benzylamide
51 53 1 0 0 
SMALL
USER_CHARGES


@<TRIPOS>ATOM
  1 F       -0.4090     2.5640     1.1080 F     1 <1>  -0.1900 
  2 C        0.6940     1.9570     0.7550 C.ar  1 <1>   0.1900 
  3 C        1.3110     2.3280    -0.4290 C.ar  1 <1>  -0.1440 
  4 C        1.2030     0.9800     1.5870 C.ar  1 <1>  -0.1500 
  5 C        2.4870     1.6810    -0.7830 C.ar  1 <1>  -0.1500 
  6 C        0.7090     3.4090    -1.3040 C.3   1 <1>   0.4870 
  7 C        2.3780     0.3460     1.2210 C.ar  1 <1>  -0.1500 
  8 C        3.0150     0.6970     0.0400 C.ar  1 <1>  -0.1500 
  9 N        0.7460     4.7100    -0.5800 N.4   1 <1>  -0.9590 
 10 C       -0.0270     5.7590    -1.2970 C.3   1 <1>   0.3430 
 11 C        2.1380     5.1390    -0.2620 C.3   1 <1>   0.3430 
 12 C       -0.1110     7.0120    -0.4290 C.3   1 <1>  -0.1600 
 13 C        2.0970     6.3810     0.6270 C.3   1 <1>  -0.1600 
 14 C        1.2800     7.5230    -0.0060 C.3   1 <1>  -0.0190 
 15 C        1.1560     8.6970     0.9630 C.2   1 <1>   0.5690 
 16 O        0.5620     8.5340     1.9990 O.2   1 <1>  -0.5700 
 17 N        1.7130     9.8860     0.6390 N.am  1 <1>  -0.7300 
 18 C        1.6860    11.0730     1.5070 C.3   1 <1>   0.2840 
 19 C        2.6250    12.0970     0.8990 C.ar  1 <1>  -0.1430 
 20 C        2.1590    13.0040    -0.0400 C.ar  1 <1>  -0.1500 
 21 C        3.9610    12.1270     1.2660 C.ar  1 <1>  -0.1500 
 22 C        3.0200    13.9290    -0.6050 C.ar  1 <1>  -0.1500 
 23 C        4.8210    13.0530     0.7010 C.ar  1 <1>  -0.1500 
 24 C        4.3550    13.9600    -0.2370 C.ar  1 <1>  -0.1430 
 25 C        5.2980    14.9740    -0.8570 C.3   1 <1>  -0.0970 
 26 H        0.6940     0.7190     2.4990 H     1 <1>   0.1500 
 27 H        3.0040     1.9250    -1.6970 H     1 <1>   0.1500 
 28 H       -0.3120     3.1440    -1.5310 H     1 <1>   0.0800 
 29 H        1.2560     3.4810    -2.2290 H     1 <1>   0.0800 
 30 H        2.7970    -0.4210     1.8510 H     1 <1>   0.1500 
 31 H        3.9270     0.1950    -0.2380 H     1 <1>   0.1500 
 32 H        0.2750     4.5360     0.3220 H     1 <1>   0.4500 
 33 H       -1.0250     5.4050    -1.5080 H     1 <1>   0.0800 
 34 H        0.4560     5.9970    -2.2310 H     1 <1>   0.0800 
 35 H        2.6720     5.3610    -1.1720 H     1 <1>   0.0800 
 36 H        2.6630     4.3510     0.2560 H     1 <1>   0.0800 
 37 H       -0.7030     6.7940     0.4450 H     1 <1>   0.0800 
 38 H       -0.6240     7.7860    -0.9730 H     1 <1>   0.0800 
 39 H        3.1030     6.7190     0.8070 H     1 <1>   0.0800 
 40 H        1.6770     6.1140     1.5820 H     1 <1>   0.0800 
 41 H        1.7980     7.8650    -0.8850 H     1 <1>   0.0800 
 42 H        2.2400    10.0340    -0.2230 H     1 <1>   0.3700 
 43 H        2.0030    10.8080     2.5020 H     1 <1>   0.0800 
 44 H        0.6830    11.4620     1.5590 H     1 <1>   0.0800 
 45 H        1.1250    12.9940    -0.3370 H     1 <1>   0.1500 
 46 H        4.3390    11.4290     1.9930 H     1 <1>   0.1500 
 47 H        2.6450    14.6270    -1.3330 H     1 <1>   0.1500 
 48 H        5.8550    13.0650     0.9950 H     1 <1>   0.1500 
 49 H        4.7660    15.8690    -1.1230 H     1 <1>   0.0800 
 50 H        5.7470    14.5600    -1.7410 H     1 <1>   0.0800 
 51 H        6.0760    15.2370    -0.1630 H     1 <1>   0.0800 
@<TRIPOS>BOND
  1   1   2  1   
  2   2   3  ar  
  3   2   4  ar  
  4   3   5  ar  
  5   3   6  1   
  6   4   7  ar  
  7   4  26  1   
  8   5   8  ar  
  9   5  27  1   
 10   6   9  1   
 11   6  28  1   
 12   6  29  1   
 13   7   8  ar  
 14   7  30  1   
 15   8  31  1   
 16   9  10  1   
 17   9  11  1   
 18   9  32  1   
 19  10  12  1   
 20  10  33  1   
 21  10  34  1   
 22  11  13  1   
 23  11  35  1   
 24  11  36  1   
 25  12  14  1   
 26  12  37  1   
 27  12  38  1   
 28  13  14  1   
 29  13  39  1   
 30  13  40  1   
 31  14  15  1   
 32  14  41  1   
 33  15  16  2   
 34  15  17  am  
 35  17  18  1   
 36  17  42  1   
 37  18  19  1   
 38  18  43  1   
 39  18  44  1   
 40  19  20  ar  
 41  19  21  ar  
 42  20  22  ar  
 43  20  45  1   
 44  21  23  ar  
 45  21  46  1   
 46  22  24  ar  
 47  22  47  1   
 48  23  24  ar  
 49  23  48  1   
 50  24  25  1   
 51  25  49  1   
 52  25  50  1   
 53  25  51  1   
@<TRIPOS>SUBSTRUCTURE
  1 ****  14 GROUP 4 **** **** 0

# MOE 2024.06 (io_trps.svl 2023.06)
