@<TRIPOS>MOLECULE
4-Methoxy-N-methyl-N-[4-(pyrrolidine-1-carbonyl)-phenyl]-benzenesulfonamide
48 50 1 0 0 
SMALL
USER_CHARGES


@<TRIPOS>ATOM
  1 S       -0.5560    -1.1140     1.5190 S.o2  1 <1>   1.4470 
  2 O       -0.4240    -2.3980     0.8690 O.2   1 <1>  -0.6500 
  3 O       -1.3970    -0.9720     2.6870 O.2   1 <1>  -0.6500 
  4 N        1.0360    -0.6100     2.0070 N.am  1 <1>  -0.6930 
  5 C       -0.9820     0.1650     0.3070 C.ar  1 <1>  -0.0090 
  6 C        2.1100    -0.6730     1.1330 C.ar  1 <1>   0.1990 
  7 C        1.1340     0.2110     3.2390 C.3   1 <1>   0.1160 
  8 C       -0.4230     0.1570    -0.9670 C.ar  1 <1>  -0.1500 
  9 C       -1.8530     1.2030     0.6250 C.ar  1 <1>  -0.1500 
 10 C        2.5950    -1.8940     0.6810 C.ar  1 <1>  -0.1500 
 11 C        2.7260     0.4860     0.6700 C.ar  1 <1>  -0.1500 
 12 C       -0.7180     1.1470    -1.8860 C.ar  1 <1>  -0.1500 
 13 C       -2.1560     2.1980    -0.2890 C.ar  1 <1>  -0.1500 
 14 C        3.6600    -1.9560    -0.1960 C.ar  1 <1>  -0.1500 
 15 C        3.7920     0.4220    -0.2060 C.ar  1 <1>  -0.1500 
 16 C       -1.5850     2.1740    -1.5570 C.ar  1 <1>   0.0830 
 17 C        4.2950    -0.8010    -0.6550 C.ar  1 <1>   0.0860 
 18 O       -1.8220     3.1060    -2.5110 O.3   1 <1>  -0.3630 
 19 C        5.4210    -0.8810    -1.5630 C.2   1 <1>   0.5440 
 20 C       -2.7200     4.1720    -2.2930 C.3   1 <1>   0.0400 
 21 O        5.3570    -1.6040    -2.5410 O.2   1 <1>  -0.5700 
 22 N        6.5790    -0.1680    -1.3470 N.am  1 <1>  -0.6600 
 23 C        7.7270    -0.2400    -2.2790 C.3   1 <1>   0.1400 
 24 C        6.9940     0.3980    -0.0440 C.3   1 <1>   0.1400 
 25 C        8.8560     0.5050    -1.5740 C.3   1 <1>  -0.1600 
 26 C        8.5170     0.4000    -0.0900 C.3   1 <1>  -0.1600 
 27 H        0.7290    -0.3390     4.0720 H     1 <1>   0.0800 
 28 H        0.5770     1.1230     3.1170 H     1 <1>   0.0800 
 29 H        2.1630     0.4460     3.4500 H     1 <1>   0.0800 
 30 H        0.2540    -0.6360    -1.2420 H     1 <1>   0.1500 
 31 H       -2.3040     1.2320     1.6030 H     1 <1>   0.1500 
 32 H        2.1270    -2.8010     1.0220 H     1 <1>   0.1500 
 33 H        2.3560     1.4420     0.9910 H     1 <1>   0.1500 
 34 H       -0.2770     1.1280    -2.8680 H     1 <1>   0.1500 
 35 H       -2.8360     2.9770     0.0010 H     1 <1>   0.1500 
 36 H        4.0160    -2.9110    -0.5420 H     1 <1>   0.1500 
 37 H        4.2440     1.3300    -0.5640 H     1 <1>   0.1500 
 38 H       -2.7560     4.7660    -3.1880 H     1 <1>   0.0800 
 39 H       -2.3630     4.7680    -1.4730 H     1 <1>   0.0800 
 40 H       -3.6950     3.7690    -2.0830 H     1 <1>   0.0800 
 41 H        7.4770     0.2100    -3.2240 H     1 <1>   0.0800 
 42 H        7.9920    -1.2730    -2.4320 H     1 <1>   0.0800 
 43 H        6.6260    -0.1940     0.7770 H     1 <1>   0.0800 
 44 H        6.6250     1.4060     0.0350 H     1 <1>   0.0800 
 45 H        8.8390     1.5350    -1.8830 H     1 <1>   0.0800 
 46 H        9.8180     0.0840    -1.8080 H     1 <1>   0.0800 
 47 H        8.8790    -0.5350     0.3020 H     1 <1>   0.0800 
 48 H        8.9350     1.2060     0.4860 H     1 <1>   0.0800 
@<TRIPOS>BOND
  1   1   2  2   
  2   1   3  2   
  3   1   4  am  
  4   1   5  1   
  5   4   6  1   
  6   4   7  1   
  7   5   8  ar  
  8   5   9  ar  
  9   6  10  ar  
 10   6  11  ar  
 11   7  27  1   
 12   7  28  1   
 13   7  29  1   
 14   8  12  ar  
 15   8  30  1   
 16   9  13  ar  
 17   9  31  1   
 18  10  14  ar  
 19  10  32  1   
 20  11  15  ar  
 21  11  33  1   
 22  12  16  ar  
 23  12  34  1   
 24  13  16  ar  
 25  13  35  1   
 26  14  17  ar  
 27  14  36  1   
 28  15  17  ar  
 29  15  37  1   
 30  16  18  1   
 31  17  19  1   
 32  18  20  1   
 33  19  21  2   
 34  19  22  am  
 35  20  38  1   
 36  20  39  1   
 37  20  40  1   
 38  22  23  1   
 39  22  24  1   
 40  23  25  1   
 41  23  41  1   
 42  23  42  1   
 43  24  26  1   
 44  24  43  1   
 45  24  44  1   
 46  25  26  1   
 47  25  45  1   
 48  25  46  1   
 49  26  47  1   
 50  26  48  1   
@<TRIPOS>SUBSTRUCTURE
  1 ****  11 GROUP 4 **** **** 0

# MOE 2024.06 (io_trps.svl 2023.06)
