@<TRIPOS>MOLECULE
4-[2-(Methanesulfonyl-methyl-amino)-benzoyl]-piperazine-1-carboxylic acid ethyl
48 49 1 0 0 
SMALL
USER_CHARGES


@<TRIPOS>ATOM
  1 S        0.7600     0.1040    -1.1230 S.o2  1 <1>   1.3330 
  2 O       -0.6310     0.4840    -1.1700 O.2   1 <1>  -0.6500 
  3 O        1.2890    -0.8530    -2.0650 O.2   1 <1>  -0.6500 
  4 N        1.7190     1.5450    -1.2740 N.am  1 <1>  -0.6930 
  5 C        1.1500    -0.4540     0.5200 C.3   1 <1>  -0.1350 
  6 C        1.3740     2.7260    -0.6150 C.ar  1 <1>   0.1990 
  7 C        3.0550     1.3890    -1.9010 C.3   1 <1>   0.1160 
  8 C        2.1350     3.2720     0.4360 C.ar  1 <1>   0.0860 
  9 C        0.2230     3.3930    -1.0250 C.ar  1 <1>  -0.1500 
 10 C        3.3510     2.6540     0.9070 C.2   1 <1>   0.5440 
 11 C        1.6930     4.4520     1.0390 C.ar  1 <1>  -0.1500 
 12 C       -0.1910     4.5620    -0.4220 C.ar  1 <1>  -0.1500 
 13 O        3.3100     1.5680     1.4550 O.2   1 <1>  -0.5700 
 14 N        4.5770     3.2710     0.7530 N.am  1 <1>  -0.6600 
 15 C        0.5470     5.0950     0.6190 C.ar  1 <1>  -0.1500 
 16 C        4.7570     4.5370    -0.0290 C.3   1 <1>   0.1400 
 17 C        5.8110     2.6870     1.3730 C.3   1 <1>   0.1400 
 18 C        6.1870     4.6930    -0.5730 C.3   1 <1>   0.1400 
 19 C        6.8610     3.7600     1.7020 C.3   1 <1>   0.1400 
 20 N        7.2080     4.5960     0.5120 N.am  1 <1>  -0.6600 
 21 C        8.4150     5.2350     0.4410 C.2   1 <1>   0.7800 
 22 O        9.2350     5.1850     1.3380 O.2   1 <1>  -0.5700 
 23 O        8.6820     5.9330    -0.6640 O.3   1 <1>  -0.4300 
 24 C        9.9070     6.6150    -0.8070 C.3   1 <1>   0.1200 
 25 C        9.9050     7.3130    -2.1640 C.3   1 <1>  -0.2400 
 26 H        0.6080    -1.3510     0.7430 H     1 <1>   0.0800 
 27 H        0.8860     0.2960     1.2390 H     1 <1>   0.0800 
 28 H        2.2000    -0.6560     0.6040 H     1 <1>   0.0800 
 29 H        2.9450     0.9640    -2.8850 H     1 <1>   0.0800 
 30 H        3.6640     0.7340    -1.3030 H     1 <1>   0.0800 
 31 H        3.5420     2.3430    -1.9900 H     1 <1>   0.0800 
 32 H       -0.3570     2.9780    -1.8310 H     1 <1>   0.1500 
 33 H        2.2620     4.8640     1.8550 H     1 <1>   0.1500 
 34 H       -1.0880     5.0550    -0.7580 H     1 <1>   0.1500 
 35 H        0.2230     6.0050     1.0970 H     1 <1>   0.1500 
 36 H        4.5390     5.3770     0.6080 H     1 <1>   0.0800 
 37 H        4.0680     4.5580    -0.8550 H     1 <1>   0.0800 
 38 H        6.2380     1.9690     0.6960 H     1 <1>   0.0800 
 39 H        5.5510     2.1680     2.2800 H     1 <1>   0.0800 
 40 H        6.2690     5.6450    -1.0690 H     1 <1>   0.0800 
 41 H        6.3760     3.9230    -1.3010 H     1 <1>   0.0800 
 42 H        7.7490     3.2790     2.0760 H     1 <1>   0.0800 
 43 H        6.4820     4.3990     2.4800 H     1 <1>   0.0800 
 44 H       10.7070     5.8970    -0.7420 H     1 <1>   0.0800 
 45 H        9.9960     7.3290    -0.0050 H     1 <1>   0.0800 
 46 H        9.8060     6.5890    -2.9530 H     1 <1>   0.0800 
 47 H       10.8300     7.8420    -2.2990 H     1 <1>   0.0800 
 48 H        9.0960     8.0190    -2.2170 H     1 <1>   0.0800 
@<TRIPOS>BOND
  1   1   2  2   
  2   1   3  2   
  3   1   4  am  
  4   1   5  1   
  5   4   6  1   
  6   4   7  1   
  7   5  26  1   
  8   5  27  1   
  9   5  28  1   
 10   6   8  ar  
 11   6   9  ar  
 12   7  29  1   
 13   7  30  1   
 14   7  31  1   
 15   8  10  1   
 16   8  11  ar  
 17   9  12  ar  
 18   9  32  1   
 19  10  13  2   
 20  10  14  am  
 21  11  15  ar  
 22  11  33  1   
 23  12  15  ar  
 24  12  34  1   
 25  14  16  1   
 26  14  17  1   
 27  15  35  1   
 28  16  18  1   
 29  16  36  1   
 30  16  37  1   
 31  17  19  1   
 32  17  38  1   
 33  17  39  1   
 34  18  20  1   
 35  18  40  1   
 36  18  41  1   
 37  19  20  1   
 38  19  42  1   
 39  19  43  1   
 40  20  21  am  
 41  21  22  2   
 42  21  23  1   
 43  23  24  1   
 44  24  25  1   
 45  24  44  1   
 46  24  45  1   
 47  25  46  1   
 48  25  47  1   
 49  25  48  1   
@<TRIPOS>SUBSTRUCTURE
  1 ****  14 GROUP 4 **** **** 0

# MOE 2024.06 (io_trps.svl 2023.06)
