@<TRIPOS>MOLECULE
4-(2,4,6-Trimethyl-benzenesulfonyl)-piperazine-1-carboxylic acid dimethylamide
48 49 1 0 0 
SMALL
USER_CHARGES


@<TRIPOS>ATOM
  1 S        0.0110     0.2120    -1.2570 S.o2  1 <1>   1.4470 
  2 O        0.2580    -0.6650    -2.3820 O.2   1 <1>  -0.6500 
  3 O       -0.5390     1.5210    -1.5420 O.2   1 <1>  -0.6500 
  4 N       -1.1760    -0.5500    -0.3150 N.am  1 <1>  -0.8490 
  5 C        1.4900     0.2580    -0.1630 C.ar  1 <1>  -0.0090 
  6 C       -2.3630    -0.8810    -1.1200 C.3   1 <1>   0.1960 
  7 C       -1.5790     0.2690     0.8440 C.3   1 <1>   0.1960 
  8 C        2.1640     1.4520     0.1410 C.ar  1 <1>  -0.1440 
  9 C        1.9910    -0.9230     0.4100 C.ar  1 <1>  -0.1430 
 10 C       -3.4160    -1.6490    -0.3020 C.3   1 <1>   0.1400 
 11 C       -2.5800    -0.4840     1.7350 C.3   1 <1>   0.1400 
 12 C        3.2520     1.4560     0.9990 C.ar  1 <1>  -0.1500 
 13 C        1.7680     2.8050    -0.4410 C.3   1 <1>  -0.0960 
 14 C        3.0820    -0.8940     1.2650 C.ar  1 <1>  -0.1500 
 15 C        1.3880    -2.2990     0.1350 C.3   1 <1>  -0.0960 
 16 N       -3.7730    -0.9120     0.9460 N.am  1 <1>  -0.6600 
 17 C        3.7150     0.2910     1.5710 C.ar  1 <1>  -0.1430 
 18 C       -4.9440    -0.2050     1.0290 C.2   1 <1>   0.6900 
 19 C        4.9090     0.3090     2.5080 C.3   1 <1>  -0.0970 
 20 O       -4.9220     0.9430     1.4410 O.2   1 <1>  -0.5700 
 21 N       -6.1370    -0.7720     0.6430 N.am  1 <1>  -0.6600 
 22 C       -7.3320     0.0760     0.3870 C.3   1 <1>   0.0600 
 23 C       -6.4270    -2.2200     0.8170 C.3   1 <1>   0.0600 
 24 H       -2.0720    -1.4900    -1.9590 H     1 <1>   0.0800 
 25 H       -2.8060     0.0230    -1.5070 H     1 <1>   0.0800 
 26 H       -2.0310     1.1900     0.5140 H     1 <1>   0.0800 
 27 H       -0.7130     0.5160     1.4340 H     1 <1>   0.0800 
 28 H       -3.0270    -2.6170    -0.0410 H     1 <1>   0.0800 
 29 H       -4.2900    -1.7920    -0.9120 H     1 <1>   0.0800 
 30 H       -2.8830     0.1500     2.5500 H     1 <1>   0.0800 
 31 H       -2.1020    -1.3520     2.1530 H     1 <1>   0.0800 
 32 H        3.7550     2.3790     1.2290 H     1 <1>   0.1500 
 33 H        0.8130     3.1130    -0.0540 H     1 <1>   0.0800 
 34 H        1.7160     2.7520    -1.5140 H     1 <1>   0.0800 
 35 H        2.4850     3.5660    -0.1920 H     1 <1>   0.0800 
 36 H        3.4500    -1.8070     1.7010 H     1 <1>   0.1500 
 37 H        0.4390    -2.3980     0.6290 H     1 <1>   0.0800 
 38 H        2.0300    -3.0820     0.4950 H     1 <1>   0.0800 
 39 H        1.2560    -2.4590    -0.9190 H     1 <1>   0.0800 
 40 H        4.9690     1.2500     3.0240 H     1 <1>   0.0800 
 41 H        5.8140     0.1620     1.9470 H     1 <1>   0.0800 
 42 H        4.8240    -0.4740     3.2410 H     1 <1>   0.0800 
 43 H       -7.0310     1.0780     0.1320 H     1 <1>   0.0800 
 44 H       -7.9450     0.1130     1.2690 H     1 <1>   0.0800 
 45 H       -7.9010    -0.3300    -0.4310 H     1 <1>   0.0800 
 46 H       -6.6190    -2.6690    -0.1410 H     1 <1>   0.0800 
 47 H       -7.2910    -2.3450     1.4460 H     1 <1>   0.0800 
 48 H       -5.5950    -2.7210     1.2810 H     1 <1>   0.0800 
@<TRIPOS>BOND
  1   1   2  2   
  2   1   3  2   
  3   1   4  am  
  4   1   5  1   
  5   4   6  1   
  6   4   7  1   
  7   5   8  ar  
  8   5   9  ar  
  9   6  10  1   
 10   6  24  1   
 11   6  25  1   
 12   7  11  1   
 13   7  26  1   
 14   7  27  1   
 15   8  12  ar  
 16   8  13  1   
 17   9  14  ar  
 18   9  15  1   
 19  10  16  1   
 20  10  28  1   
 21  10  29  1   
 22  11  16  1   
 23  11  30  1   
 24  11  31  1   
 25  12  17  ar  
 26  12  32  1   
 27  13  33  1   
 28  13  34  1   
 29  13  35  1   
 30  14  17  ar  
 31  14  36  1   
 32  15  37  1   
 33  15  38  1   
 34  15  39  1   
 35  16  18  am  
 36  17  19  1   
 37  18  20  2   
 38  18  21  am  
 39  19  40  1   
 40  19  41  1   
 41  19  42  1   
 42  21  22  1   
 43  21  23  1   
 44  22  43  1   
 45  22  44  1   
 46  22  45  1   
 47  23  46  1   
 48  23  47  1   
 49  23  48  1   
@<TRIPOS>SUBSTRUCTURE
  1 ****   4 GROUP 4 **** **** 0

# MOE 2024.06 (io_trps.svl 2023.06)
