@<TRIPOS>MOLECULE
N-tert-Butyl-3-[3-(2-methoxy-phenyl)-[1,2,4]oxadiazol-5-yl]-propionamide
43 44 1 0 0 
SMALL
USER_CHARGES


@<TRIPOS>ATOM
  1 O        0.7230    -1.3960     2.5240 O.2   1 <1>  -0.5700 
  2 C        1.0180    -1.9660     1.5050 C.2   1 <1>   0.5690 
  3 N        2.2750    -1.8120     1.0250 N.am  1 <1>  -0.7300 
  4 C       -0.0270    -2.8250     0.8160 C.3   1 <1>  -0.0990 
  5 C        3.0190    -2.3240    -0.1310 C.3   1 <1>   0.3000 
  6 C       -1.4600    -2.5170     1.2780 C.3   1 <1>   0.0200 
  7 C        4.4880    -2.0120     0.1470 C.3   1 <1>  -0.2400 
  8 C        2.8510    -3.8380    -0.2790 C.3   1 <1>  -0.2400 
  9 C        2.5730    -1.5810    -1.3890 C.3   1 <1>  -0.2400 
 10 C       -2.4650    -3.3490     0.5080 C.2   1 <1>   0.2980 
 11 O       -2.6560    -3.0860    -0.7580 O.3   1 <1>  -0.0190 
 12 N       -3.1480    -4.3080     0.9770 N.2   1 <1>  -0.5650 
 13 N       -3.5380    -3.9590    -1.1310 N.2   1 <1>  -0.4100 
 14 C       -3.8440    -4.6740    -0.1060 C.2   1 <1>   0.4620 
 15 C       -4.7820    -5.7780    -0.0660 C.ar  1 <1>   0.0540 
 16 C       -6.0620    -5.7070    -0.6350 C.ar  1 <1>   0.0820 
 17 C       -4.4130    -6.9700     0.5600 C.ar  1 <1>  -0.1500 
 18 O       -6.4370    -4.5370    -1.2130 O.3   1 <1>  -0.3630 
 19 C       -6.9140    -6.8090    -0.5850 C.ar  1 <1>  -0.1500 
 20 C       -5.2630    -8.0580     0.6110 C.ar  1 <1>  -0.1500 
 21 C       -7.6610    -4.3830    -1.8970 C.3   1 <1>   0.0400 
 22 C       -6.5160    -7.9790     0.0330 C.ar  1 <1>  -0.1500 
 23 H        2.8420    -1.1910     1.6020 H     1 <1>   0.3700 
 24 H        0.1890    -3.8560     1.0250 H     1 <1>   0.0800 
 25 H        0.0300    -2.6680    -0.2430 H     1 <1>   0.0800 
 26 H       -1.6810    -1.4750     1.1290 H     1 <1>   0.0800 
 27 H       -1.5580    -2.7320     2.3280 H     1 <1>   0.0800 
 28 H        4.8170    -2.5130     1.0410 H     1 <1>   0.0800 
 29 H        4.6380    -0.9530     0.2610 H     1 <1>   0.0800 
 30 H        5.1020    -2.3490    -0.6690 H     1 <1>   0.0800 
 31 H        3.5540    -4.2150    -1.0000 H     1 <1>   0.0800 
 32 H        1.8710    -4.0940    -0.6320 H     1 <1>   0.0800 
 33 H        3.0360    -4.3300     0.6590 H     1 <1>   0.0800 
 34 H        3.1740    -1.8840    -2.2280 H     1 <1>   0.0800 
 35 H        2.6880    -0.5200    -1.2590 H     1 <1>   0.0800 
 36 H        1.5480    -1.7930    -1.6260 H     1 <1>   0.0800 
 37 H       -3.4390    -7.0380     1.0130 H     1 <1>   0.1500 
 38 H       -7.8950    -6.7750    -1.0190 H     1 <1>   0.1500 
 39 H       -4.9500    -8.9660     1.0980 H     1 <1>   0.1500 
 40 H       -7.6950    -3.3850    -2.2960 H     1 <1>   0.0800 
 41 H       -8.4690    -4.5260    -1.2020 H     1 <1>   0.0800 
 42 H       -7.7050    -5.0990    -2.6980 H     1 <1>   0.0800 
 43 H       -7.1790    -8.8260     0.0690 H     1 <1>   0.1500 
@<TRIPOS>BOND
  1   1   2  2   
  2   2   3  am  
  3   2   4  1   
  4   3   5  1   
  5   3  23  1   
  6   4   6  1   
  7   4  24  1   
  8   4  25  1   
  9   5   7  1   
 10   5   8  1   
 11   5   9  1   
 12   6  10  1   
 13   6  26  1   
 14   6  27  1   
 15   7  28  1   
 16   7  29  1   
 17   7  30  1   
 18   8  31  1   
 19   8  32  1   
 20   8  33  1   
 21   9  34  1   
 22   9  35  1   
 23   9  36  1   
 24  10  11  1   
 25  10  12  2   
 26  11  13  1   
 27  12  14  1   
 28  13  14  2   
 29  14  15  1   
 30  15  16  ar  
 31  15  17  ar  
 32  16  18  1   
 33  16  19  ar  
 34  17  20  ar  
 35  17  37  1   
 36  18  21  1   
 37  19  22  ar  
 38  19  38  1   
 39  20  22  ar  
 40  20  39  1   
 41  21  40  1   
 42  21  41  1   
 43  21  42  1   
 44  22  43  1   
@<TRIPOS>SUBSTRUCTURE
  1 ****  10 GROUP 4 **** **** 0

# MOE 2024.06 (io_trps.svl 2023.06)
