@<TRIPOS>MOLECULE
4-Chloro-N-(3-ethoxy-propyl)-3-(morpholine-4-sulfonyl)-benzamide
48 49 1 0 0 
SMALL
USER_CHARGES


@<TRIPOS>ATOM
  1 CL       0.4660     0.3930    -2.2380 Cl    1 <1>  -0.1770 
  2 C        1.7170    -0.6310    -1.5820 C.ar  1 <1>   0.1770 
  3 C        1.4740    -1.9380    -1.1750 C.ar  1 <1>  -0.0090 
  4 C        2.9730    -0.0630    -1.4780 C.ar  1 <1>  -0.1500 
  5 S       -0.1550    -2.7290    -1.2740 S.o2  1 <1>   1.4470 
  6 C        2.5490    -2.6420    -0.6420 C.ar  1 <1>  -0.1500 
  7 C        4.0210    -0.7940    -0.9530 C.ar  1 <1>  -0.1500 
  8 O        0.0490    -4.1610    -1.3060 O.2   1 <1>  -0.6500 
  9 O       -1.0120    -2.1510    -2.2840 O.2   1 <1>  -0.6500 
 10 N       -0.8640    -2.3830     0.2250 N.am  1 <1>  -0.8490 
 11 C        3.8330    -2.1080    -0.5240 C.ar  1 <1>   0.0860 
 12 C       -1.4580    -1.0440     0.3170 C.3   1 <1>   0.1960 
 13 C       -1.8350    -3.4200     0.6300 C.3   1 <1>   0.1960 
 14 C        4.9200    -2.8950     0.0310 C.2   1 <1>   0.5440 
 15 C       -1.9930    -0.7520     1.7380 C.3   1 <1>   0.1200 
 16 C       -2.9140    -2.9250     1.6200 C.3   1 <1>   0.1200 
 17 O        4.7010    -3.7420     0.8730 O.2   1 <1>  -0.5700 
 18 N        6.2060    -2.7100    -0.3940 N.am  1 <1>  -0.7300 
 19 O       -2.4270    -1.8960     2.4290 O.3   1 <1>  -0.5600 
 20 C        7.3790    -3.4370     0.1320 C.3   1 <1>   0.1400 
 21 C        8.6030    -2.5270     0.0680 C.3   1 <1>  -0.1600 
 22 C        9.8300    -3.2300     0.6400 C.3   1 <1>   0.1200 
 23 O       10.9070    -2.3650     0.5090 O.3   1 <1>  -0.5600 
 24 C       12.1000    -2.8650     1.0100 C.3   1 <1>   0.1200 
 25 C       13.1710    -1.8050     0.7870 C.3   1 <1>  -0.2400 
 26 H        3.1240     0.9520    -1.8040 H     1 <1>   0.1500 
 27 H        2.3910    -3.6530    -0.3010 H     1 <1>   0.1500 
 28 H        4.9920    -0.3380    -0.8640 H     1 <1>   0.1500 
 29 H       -2.2680    -0.9570    -0.3900 H     1 <1>   0.0800 
 30 H       -0.7290    -0.2950     0.0690 H     1 <1>   0.0800 
 31 H       -1.2940    -4.2350     1.0800 H     1 <1>   0.0800 
 32 H       -2.3400    -3.8140    -0.2370 H     1 <1>   0.0800 
 33 H       -2.8140    -0.0590     1.6880 H     1 <1>   0.0800 
 34 H       -1.2140    -0.3070     2.3310 H     1 <1>   0.0800 
 35 H       -3.2310    -3.7310     2.2580 H     1 <1>   0.0800 
 36 H       -3.7720    -2.5560     1.0870 H     1 <1>   0.0800 
 37 H        6.3910    -2.1060    -1.1960 H     1 <1>   0.3700 
 38 H        7.5390    -4.3240    -0.4580 H     1 <1>   0.0800 
 39 H        7.1920    -3.7350     1.1520 H     1 <1>   0.0800 
 40 H        8.4170    -1.6370     0.6420 H     1 <1>   0.0800 
 41 H        8.8010    -2.2620    -0.9550 H     1 <1>   0.0800 
 42 H       10.0450    -4.1330     0.0930 H     1 <1>   0.0800 
 43 H        9.6890    -3.4540     1.6850 H     1 <1>   0.0800 
 44 H       12.3480    -3.7720     0.4840 H     1 <1>   0.0800 
 45 H       11.9790    -3.0670     2.0610 H     1 <1>   0.0800 
 46 H       13.2730    -1.6010    -0.2640 H     1 <1>   0.0800 
 47 H       14.1140    -2.1540     1.1640 H     1 <1>   0.0800 
 48 H       12.9060    -0.9000     1.3030 H     1 <1>   0.0800 
@<TRIPOS>BOND
  1   1   2  1   
  2   2   3  ar  
  3   2   4  ar  
  4   3   5  1   
  5   3   6  ar  
  6   4   7  ar  
  7   4  26  1   
  8   5   8  2   
  9   5   9  2   
 10   5  10  am  
 11   6  11  ar  
 12   6  27  1   
 13   7  11  ar  
 14   7  28  1   
 15  10  12  1   
 16  10  13  1   
 17  11  14  1   
 18  12  15  1   
 19  12  29  1   
 20  12  30  1   
 21  13  16  1   
 22  13  31  1   
 23  13  32  1   
 24  14  17  2   
 25  14  18  am  
 26  15  19  1   
 27  15  33  1   
 28  15  34  1   
 29  16  19  1   
 30  16  35  1   
 31  16  36  1   
 32  18  20  1   
 33  18  37  1   
 34  20  21  1   
 35  20  38  1   
 36  20  39  1   
 37  21  22  1   
 38  21  40  1   
 39  21  41  1   
 40  22  23  1   
 41  22  42  1   
 42  22  43  1   
 43  23  24  1   
 44  24  25  1   
 45  24  44  1   
 46  24  45  1   
 47  25  46  1   
 48  25  47  1   
 49  25  48  1   
@<TRIPOS>SUBSTRUCTURE
  1 ****  11 GROUP 4 **** **** 0

# MOE 2024.06 (io_trps.svl 2023.06)
