@<TRIPOS>MOLECULE
1,3-Dimethyl-7-(2-methyl-benzyl)-8-(2-methyl-piperidin-1-ylmethyl)-3,7-dihydro-p
59 62 1 0 0 
SMALL
USER_CHARGES


@<TRIPOS>ATOM
  1 O        0.3390     0.2780    -0.4480 O.2   1 <1>  -0.5700 
  2 C        1.3510     0.8770    -0.1470 C.2   1 <1>   0.6900 
  3 N        1.2660     2.0780     0.5500 N.am  1 <1>  -0.4200 
  4 N        2.5900     0.3570    -0.4890 N.am  1 <1>  -0.4360 
  5 C        2.4060     2.7420     0.9810 C.2   1 <1>   0.7030 
  6 C       -0.0840     2.6280     0.8880 C.3   1 <1>   0.0600 
  7 C        3.7170     1.0570    -0.1040 C.2   1 <1>   0.4260 
  8 C        2.7110    -0.9260    -1.2430 C.3   1 <1>   0.0600 
  9 O        2.3150     3.7130     1.7130 O.2   1 <1>  -0.5700 
 10 C        3.6840     2.2230     0.5850 C.2   1 <1>   0.2770 
 11 N        5.0140     0.7370    -0.3240 N.pl3 1 <1>  -0.7000 
 12 N        5.0150     2.6220     0.7540 N.pl3 1 <1>  -0.7640 
 13 C        5.7770     1.6880     0.1980 C.cat 1 <1>   0.6560 
 14 C        5.4060     3.9200     1.3710 C.3   1 <1>   0.4970 
 15 C        7.3100     1.6370     0.0920 C.3   1 <1>   0.2540 
 16 C        5.1260     5.0770     0.4100 C.ar  1 <1>  -0.1430 
 17 N        7.7690     0.3120    -0.4210 N.3   1 <1>  -0.8100 
 18 C        4.5850     6.2810     0.8630 C.ar  1 <1>  -0.1430 
 19 C        5.4240     4.9430    -0.9440 C.ar  1 <1>  -0.1500 
 20 C        8.2570    -0.6020     0.6420 C.3   1 <1>   0.1900 
 21 C        8.7960     0.5050    -1.4660 C.3   1 <1>   0.1100 
 22 C        4.3400     7.3060    -0.0400 C.ar  1 <1>  -0.1500 
 23 C        4.2450     6.5350     2.3280 C.3   1 <1>  -0.0970 
 24 C        5.1780     5.9710    -1.8340 C.ar  1 <1>  -0.1500 
 25 C        8.6170    -1.9650     0.0300 C.3   1 <1>  -0.1600 
 26 C        7.1990    -0.8240     1.7300 C.3   1 <1>  -0.2400 
 27 C        9.1430    -0.8270    -2.1330 C.3   1 <1>  -0.1600 
 28 C        4.6330     7.1550    -1.3810 C.ar  1 <1>  -0.1500 
 29 C        9.6420    -1.8380    -1.1000 C.3   1 <1>  -0.1600 
 30 H       -0.4450     2.1670     1.7910 H     1 <1>   0.0800 
 31 H       -0.7800     2.4250     0.0910 H     1 <1>   0.0800 
 32 H       -0.0390     3.6940     1.0300 H     1 <1>   0.0800 
 33 H        1.7810    -1.1750    -1.7260 H     1 <1>   0.0800 
 34 H        2.9680    -1.7220    -0.5660 H     1 <1>   0.0800 
 35 H        3.4690    -0.8420    -2.0010 H     1 <1>   0.0800 
 36 H        5.4380    -0.0750    -0.7880 H     1 <1>   0.4500 
 37 H        6.4540     3.9160     1.6130 H     1 <1>   0.0800 
 38 H        4.8590     4.0410     2.2900 H     1 <1>   0.0800 
 39 H        7.7560     1.8470     1.0480 H     1 <1>   0.0800 
 40 H        7.6080     2.4200    -0.5830 H     1 <1>   0.0800 
 41 H        5.8500     4.0400    -1.3360 H     1 <1>   0.1500 
 42 H        9.1430    -0.1830     1.0940 H     1 <1>   0.0800 
 43 H        9.6850     0.9350    -1.0340 H     1 <1>   0.0800 
 44 H        8.4270     1.1760    -2.2240 H     1 <1>   0.0800 
 45 H        3.9160     8.2370     0.2950 H     1 <1>   0.1500 
 46 H        3.4150     5.9230     2.6310 H     1 <1>   0.0800 
 47 H        3.9690     7.5620     2.4850 H     1 <1>   0.0800 
 48 H        5.0920     6.3250     2.9560 H     1 <1>   0.0800 
 49 H        5.4100     5.8560    -2.8790 H     1 <1>   0.1500 
 50 H        7.7260    -2.4320    -0.3500 H     1 <1>   0.0800 
 51 H        9.0210    -2.6080     0.7930 H     1 <1>   0.0800 
 52 H        6.2900    -1.2080     1.3060 H     1 <1>   0.0800 
 53 H        6.9960     0.0740     2.2820 H     1 <1>   0.0800 
 54 H        7.5630    -1.5490     2.4370 H     1 <1>   0.0800 
 55 H        9.9050    -0.6670    -2.8760 H     1 <1>   0.0800 
 56 H        8.2710    -1.2110    -2.6320 H     1 <1>   0.0800 
 57 H        4.4370     7.9590    -2.0690 H     1 <1>   0.1500 
 58 H        9.7970    -2.7960    -1.5670 H     1 <1>   0.0800 
 59 H       10.5830    -1.5070    -0.6960 H     1 <1>   0.0800 
@<TRIPOS>BOND
  1   1   2  2   
  2   2   3  am  
  3   2   4  am  
  4   3   5  am  
  5   3   6  1   
  6   4   7  1   
  7   4   8  1   
  8   5   9  2   
  9   5  10  1   
 10   6  30  1   
 11   6  31  1   
 12   6  32  1   
 13   7  10  2   
 14   7  11  1   
 15   8  33  1   
 16   8  34  1   
 17   8  35  1   
 18  10  12  1   
 19  11  13  ar  
 20  11  36  1   
 21  12  13  ar  
 22  12  14  1   
 23  13  15  1   
 24  14  16  1   
 25  14  37  1   
 26  14  38  1   
 27  15  17  1   
 28  15  39  1   
 29  15  40  1   
 30  16  18  ar  
 31  16  19  ar  
 32  17  20  1   
 33  17  21  1   
 34  18  22  ar  
 35  18  23  1   
 36  19  24  ar  
 37  19  41  1   
 38  20  25  1   
 39  20  26  1   
 40  20  42  1   
 41  21  27  1   
 42  21  43  1   
 43  21  44  1   
 44  22  28  ar  
 45  22  45  1   
 46  23  46  1   
 47  23  47  1   
 48  23  48  1   
 49  24  28  ar  
 50  24  49  1   
 51  25  29  1   
 52  25  50  1   
 53  25  51  1   
 54  26  52  1   
 55  26  53  1   
 56  26  54  1   
 57  27  29  1   
 58  27  55  1   
 59  27  56  1   
 60  28  57  1   
 61  29  58  1   
 62  29  59  1   
@<TRIPOS>SUBSTRUCTURE
  1 ****  12 GROUP 4 **** **** 0

# MOE 2024.06 (io_trps.svl 2023.06)
