@<TRIPOS>MOLECULE
7-(2-Hydroxy-3-m-tolyloxy-propyl)-3-methyl-8-methylamino-3,7-dihydro-purine-2,6-
48 50 1 0 0 
SMALL
USER_CHARGES


@<TRIPOS>ATOM
  1 O        5.4330    -0.6170    -2.5880 O.2   1 <1>  -0.5750 
  2 C        5.3500     0.4060    -1.9470 C.2   1 <1>   0.6860 
  3 N        6.0620     0.5990    -0.7740 N.am  1 <1>  -0.4420 
  4 N        4.5270     1.3950    -2.3980 N.am  1 <1>  -0.4960 
  5 C        5.9340     1.8250    -0.1380 C.2   1 <1>   0.4200 
  6 C        6.9320    -0.4840    -0.2330 C.3   1 <1>   0.0520 
  7 C        4.3610     2.5940    -1.7660 C.2   1 <1>   0.6990 
  8 N        6.6020     2.2640     0.9620 N.pl3 1 <1>  -0.7040 
  9 C        5.1130     2.8140    -0.5640 C.2   1 <1>   0.2700 
 10 O        3.5920     3.4040    -2.2450 O.2   1 <1>  -0.5750 
 11 C        6.2140     3.5090     1.2090 C.cat 1 <1>   1.0690 
 12 N        5.2790     3.8850     0.3380 N.pl3 1 <1>  -0.7680 
 13 N        6.7020     4.2740     2.1850 N.pl3 1 <1>  -0.7180 
 14 C        4.6860     5.2400     0.1190 C.3   1 <1>   0.3480 
 15 C        7.8650     4.0000     3.0720 C.3   1 <1>   0.0790 
 16 C        5.7200     6.2840    -0.3570 C.3   1 <1>   0.1920 
 17 O        5.1070     7.5270    -0.3070 O.3   1 <1>  -0.6840 
 18 C        6.2670     6.0630    -1.7840 C.3   1 <1>   0.1120 
 19 O        6.9230     4.8110    -1.9130 O.3   1 <1>  -0.3690 
 20 C        8.1030     4.5220    -1.3050 C.ar  1 <1>   0.0740 
 21 C        8.5690     3.2240    -1.4440 C.ar  1 <1>  -0.1580 
 22 C        8.8360     5.4320    -0.5480 C.ar  1 <1>  -0.1580 
 23 C        9.7160     2.8080    -0.7920 C.ar  1 <1>  -0.1510 
 24 C        9.9810     5.0180     0.1080 C.ar  1 <1>  -0.1580 
 25 C       10.4140     3.7090    -0.0050 C.ar  1 <1>  -0.1580 
 26 C       10.2340     1.3890    -0.9510 C.3   1 <1>  -0.1050 
 27 H        4.0180     1.2260    -3.2630 H     1 <1>   0.3640 
 28 H        6.5400    -1.4480    -0.5110 H     1 <1>   0.0720 
 29 H        6.9740    -0.4350     0.8400 H     1 <1>   0.0720 
 30 H        7.9230    -0.3880    -0.6380 H     1 <1>   0.0720 
 31 H        7.3650     1.7980     1.4390 H     1 <1>   0.4440 
 32 H        6.2650     5.1840     2.3280 H     1 <1>   0.4440 
 33 H        4.2560     5.5770     1.0460 H     1 <1>   0.0720 
 34 H        3.8900     5.1830    -0.6020 H     1 <1>   0.0720 
 35 H        8.3830     3.1060     2.7710 H     1 <1>   0.0720 
 36 H        7.5320     3.8860     4.0910 H     1 <1>   0.0720 
 37 H        8.5590     4.8230     3.0250 H     1 <1>   0.0720 
 38 H        6.5280     6.3320     0.3460 H     1 <1>   0.0720 
 39 H        5.6940     8.2380    -0.6390 H     1 <1>   0.3940 
 40 H        6.9660     6.8320    -2.0620 H     1 <1>   0.0720 
 41 H        5.4540     6.0600    -2.4890 H     1 <1>   0.0720 
 42 H        8.0300     2.5420    -2.0770 H     1 <1>   0.1420 
 43 H        8.5480     6.4620    -0.4650 H     1 <1>   0.1420 
 44 H       10.5500     5.7180     0.6970 H     1 <1>   0.1420 
 45 H       11.3120     3.4000     0.5030 H     1 <1>   0.1420 
 46 H        9.7170     0.8780    -1.7430 H     1 <1>   0.0720 
 47 H       10.1050     0.8410    -0.0360 H     1 <1>   0.0720 
 48 H       11.2810     1.4100    -1.1950 H     1 <1>   0.0720 
@<TRIPOS>BOND
  1   1   2  2   
  2   2   3  am  
  3   2   4  am  
  4   3   5  1   
  5   3   6  1   
  6   4   7  am  
  7   4  27  1   
  8   5   8  1   
  9   5   9  2   
 10   6  28  1   
 11   6  29  1   
 12   6  30  1   
 13   7   9  1   
 14   7  10  2   
 15   8  11  ar  
 16   8  31  1   
 17   9  12  1   
 18  11  12  ar  
 19  11  13  ar  
 20  12  14  1   
 21  13  15  1   
 22  13  32  1   
 23  14  16  1   
 24  14  33  1   
 25  14  34  1   
 26  15  35  1   
 27  15  36  1   
 28  15  37  1   
 29  16  17  1   
 30  16  18  1   
 31  16  38  1   
 32  17  39  1   
 33  18  19  1   
 34  18  40  1   
 35  18  41  1   
 36  19  20  1   
 37  20  21  ar  
 38  20  22  ar  
 39  21  23  ar  
 40  21  42  1   
 41  22  24  ar  
 42  22  43  1   
 43  23  25  ar  
 44  23  26  1   
 45  24  25  ar  
 46  24  44  1   
 47  25  45  1   
 48  26  46  1   
 49  26  47  1   
 50  26  48  1   
@<TRIPOS>SUBSTRUCTURE
  1 ****   9 GROUP 4 **** **** 0

# MOE 2024.06 (io_trps.svl 2023.06)
