@<TRIPOS>MOLECULE
8-Ethylamino-7-(2-hydroxy-3-m-tolyloxy-propyl)-1,3-dimethyl-3,7-dihydro-purine-2
54 56 1 0 0 
SMALL
USER_CHARGES


@<TRIPOS>ATOM
  1 O        0.3240     1.0010     0.0310 O.2   1 <1>  -0.5740 
  2 C        1.4530     1.4460     0.0810 C.2   1 <1>   0.6860 
  3 N        1.6620     2.7790     0.4180 N.am  1 <1>  -0.4250 
  4 N        2.5340     0.6240    -0.2080 N.am  1 <1>  -0.4410 
  5 C        2.9360     3.3310     0.4110 C.2   1 <1>   0.7000 
  6 C        0.4800     3.6340     0.7520 C.3   1 <1>   0.0530 
  7 C        3.7950     1.1870    -0.2140 C.2   1 <1>   0.4210 
  8 C        2.3270    -0.8170    -0.5420 C.3   1 <1>   0.0530 
  9 O        3.1090     4.5060     0.6850 O.2   1 <1>  -0.5740 
 10 C        4.0410     2.4820     0.0730 C.2   1 <1>   0.2710 
 11 N        4.9750     0.5800    -0.5000 N.pl3 1 <1>  -0.7030 
 12 N        5.4360     2.6700    -0.0470 N.pl3 1 <1>  -0.7670 
 13 C        5.9470     1.4790    -0.3860 C.cat 1 <1>   1.0690 
 14 C        6.0170     4.0530     0.1280 C.3   1 <1>   0.3480 
 15 N        7.2260     1.1850    -0.5780 N.pl3 1 <1>  -0.7180 
 16 C        7.5230     4.2360    -0.1830 C.3   1 <1>   0.1930 
 17 C        7.8600    -0.0830    -0.9870 C.3   1 <1>   0.1610 
 18 O        8.3050     3.4090     0.6290 O.3   1 <1>  -0.6840 
 19 C        7.9830     5.6860     0.0060 C.3   1 <1>   0.1130 
 20 C        8.5050    -0.7160     0.2380 C.3   1 <1>  -0.2460 
 21 O        7.1170     6.5190    -0.7290 O.3   1 <1>  -0.3680 
 22 C        7.1900     7.8690    -0.6190 C.ar  1 <1>   0.0750 
 23 C        8.2290     8.5370     0.0240 C.ar  1 <1>  -0.1570 
 24 C        6.1550     8.5960    -1.1840 C.ar  1 <1>  -0.1570 
 25 C        8.2240     9.9200     0.1080 C.ar  1 <1>  -0.1500 
 26 C        6.1500     9.9770    -1.1040 C.ar  1 <1>  -0.1570 
 27 C        7.1820    10.6350    -0.4590 C.ar  1 <1>  -0.1570 
 28 C        9.3550    10.6530     0.8080 C.3   1 <1>  -0.1040 
 29 H       -0.2440     3.0660     1.3110 H     1 <1>   0.0730 
 30 H        0.0200     3.9840    -0.1560 H     1 <1>   0.0730 
 31 H        0.7710     4.4820     1.3470 H     1 <1>   0.0730 
 32 H        1.3950    -1.1700    -0.1340 H     1 <1>   0.0730 
 33 H        3.1180    -1.4170    -0.1280 H     1 <1>   0.0730 
 34 H        2.3010    -0.9420    -1.6110 H     1 <1>   0.0730 
 35 H        5.1250    -0.3950    -0.7370 H     1 <1>   0.4450 
 36 H        5.8310     4.3840     1.1360 H     1 <1>   0.0730 
 37 H        5.4660     4.7170    -0.5180 H     1 <1>   0.0730 
 38 H        7.8910     1.9100    -0.2650 H     1 <1>   0.4450 
 39 H        7.7090     3.9570    -1.2060 H     1 <1>   0.0730 
 40 H        8.6120     0.1180    -1.7330 H     1 <1>   0.0730 
 41 H        7.1350    -0.7560    -1.4140 H     1 <1>   0.0730 
 42 H        8.4950     3.8390     1.4930 H     1 <1>   0.3950 
 43 H        8.9810     5.8230    -0.3730 H     1 <1>   0.0730 
 44 H        7.9230     5.9790     1.0400 H     1 <1>   0.0730 
 45 H        9.2550    -0.0650     0.6510 H     1 <1>   0.0730 
 46 H        8.9830    -1.6380    -0.0430 H     1 <1>   0.0730 
 47 H        7.7680    -0.9360     0.9910 H     1 <1>   0.0730 
 48 H        9.0500     8.0010     0.4590 H     1 <1>   0.1430 
 49 H        5.3560     8.0820    -1.6840 H     1 <1>   0.1430 
 50 H        5.3440    10.5390    -1.5420 H     1 <1>   0.1430 
 51 H        7.1700    11.7090    -0.4010 H     1 <1>   0.1430 
 52 H        9.8060    10.0270     1.5560 H     1 <1>   0.0730 
 53 H        8.9840    11.5410     1.2880 H     1 <1>   0.0730 
 54 H       10.1050    10.9340     0.0900 H     1 <1>   0.0730 
@<TRIPOS>BOND
  1   1   2  2   
  2   2   3  am  
  3   2   4  am  
  4   3   5  am  
  5   3   6  1   
  6   4   7  1   
  7   4   8  1   
  8   5   9  2   
  9   5  10  1   
 10   6  29  1   
 11   6  30  1   
 12   6  31  1   
 13   7  10  2   
 14   7  11  1   
 15   8  32  1   
 16   8  33  1   
 17   8  34  1   
 18  10  12  1   
 19  11  13  ar  
 20  11  35  1   
 21  12  13  ar  
 22  12  14  1   
 23  13  15  ar  
 24  14  16  1   
 25  14  36  1   
 26  14  37  1   
 27  15  17  1   
 28  15  38  1   
 29  16  18  1   
 30  16  19  1   
 31  16  39  1   
 32  17  20  1   
 33  17  40  1   
 34  17  41  1   
 35  18  42  1   
 36  19  21  1   
 37  19  43  1   
 38  19  44  1   
 39  20  45  1   
 40  20  46  1   
 41  20  47  1   
 42  21  22  1   
 43  22  23  ar  
 44  22  24  ar  
 45  23  25  ar  
 46  23  48  1   
 47  24  26  ar  
 48  24  49  1   
 49  25  27  ar  
 50  25  28  1   
 51  26  27  ar  
 52  26  50  1   
 53  27  51  1   
 54  28  52  1   
 55  28  53  1   
 56  28  54  1   
@<TRIPOS>SUBSTRUCTURE
  1 ****  14 GROUP 4 **** **** 0

# MOE 2024.06 (io_trps.svl 2023.06)
