@<TRIPOS>MOLECULE
2-(3-Allyl-5,6-dimethyl-4-oxo-3,4-dihydro-thieno[2,3-d]pyrimidin-2-ylsulfanyl)-N
51 53 1 0 0 
SMALL
USER_CHARGES


@<TRIPOS>ATOM
  1 S       -0.6230     0.8070     1.6840 S.3   1 <1>  -0.0800 
  2 C        0.8980     0.9260     0.8310 C.2   1 <1>   0.1660 
  3 C       -1.3520     2.0280     0.6480 C.2   1 <1>  -0.1400 
  4 N        1.9640     0.1730     1.1760 N.2   1 <1>  -0.5760 
  5 C        0.8320     1.8400    -0.1730 C.2   1 <1>  -0.0860 
  6 C       -0.4650     2.4690    -0.2700 C.2   1 <1>  -0.1810 
  7 C       -2.8000     2.3610     0.9570 C.3   1 <1>  -0.0600 
  8 C        3.0130     0.3720     0.4560 C.2   1 <1>   0.6510 
  9 C        2.0250     2.0150    -0.9380 C.2   1 <1>   0.7160 
 10 C       -0.7390     3.5240    -1.3310 C.3   1 <1>  -0.0590 
 11 S        4.4410    -0.6180     0.8650 S.3   1 <1>  -0.3710 
 12 N        3.1240     1.2530    -0.5970 N.am  1 <1>  -0.4200 
 13 O        2.0970     2.8050    -1.8710 O.2   1 <1>  -0.5700 
 14 C        3.9390    -1.5420     2.4020 C.3   1 <1>   0.1310 
 15 C        4.4000     1.4680    -1.3270 C.3   1 <1>   0.2780 
 16 C        4.9580    -2.6200     2.7400 C.2   1 <1>   0.5690 
 17 C        5.2080     2.5360    -0.6120 C.2   1 <1>  -0.2880 
 18 O        5.6640    -2.4730     3.7050 O.2   1 <1>  -0.5700 
 19 N        5.0770    -3.7490     1.9970 N.am  1 <1>  -0.7300 
 20 C        6.3800     2.3410     0.0000 C.2   1 <1>  -0.3000 
 21 C        4.3500    -4.1360     0.7770 C.3   1 <1>   0.2200 
 22 C        3.6770    -5.4920     1.0090 C.3   1 <1>  -0.1600 
 23 C        5.3400    -4.2000    -0.3900 C.3   1 <1>  -0.1600 
 24 C        2.9830    -5.9900    -0.2670 C.3   1 <1>  -0.1600 
 25 C        4.6520    -4.6930    -1.6710 C.3   1 <1>  -0.1600 
 26 C        3.9660    -6.0480    -1.4450 C.3   1 <1>  -0.1600 
 27 H       -2.8800     2.7270     1.9650 H     1 <1>   0.0800 
 28 H       -3.4040     1.4770     0.8600 H     1 <1>   0.0800 
 29 H       -3.1780     3.1100     0.2880 H     1 <1>   0.0800 
 30 H       -1.7440     3.8930    -1.2700 H     1 <1>   0.0800 
 31 H       -0.5910     3.1050    -2.3110 H     1 <1>   0.0800 
 32 H       -0.0650     4.3520    -1.2060 H     1 <1>   0.0800 
 33 H        2.9740    -1.9800     2.2290 H     1 <1>   0.0800 
 34 H        3.8740    -0.8220     3.1970 H     1 <1>   0.0800 
 35 H        4.2070     1.7820    -2.3380 H     1 <1>   0.0800 
 36 H        4.9610     0.5530    -1.3930 H     1 <1>   0.0800 
 37 H        4.7270     3.5000    -0.6480 H     1 <1>   0.1500 
 38 H        5.7990    -4.4020     2.3040 H     1 <1>   0.3700 
 39 H        6.9330     3.1190     0.5000 H     1 <1>   0.1500 
 40 H        6.8870     1.3920     0.0600 H     1 <1>   0.1500 
 41 H        3.5910    -3.4080     0.5480 H     1 <1>   0.0800 
 42 H        2.9490    -5.4000     1.7960 H     1 <1>   0.0800 
 43 H        4.4160    -6.2140     1.3100 H     1 <1>   0.0800 
 44 H        6.1450    -4.8700    -0.1440 H     1 <1>   0.0800 
 45 H        5.7530    -3.2210    -0.5620 H     1 <1>   0.0800 
 46 H        2.1710    -5.3270    -0.5140 H     1 <1>   0.0800 
 47 H        2.5690    -6.9680    -0.0950 H     1 <1>   0.0800 
 48 H        5.3790    -4.7850    -2.4600 H     1 <1>   0.0800 
 49 H        3.9170    -3.9700    -1.9840 H     1 <1>   0.0800 
 50 H        3.4410    -6.3400    -2.3390 H     1 <1>   0.0800 
 51 H        4.7150    -6.7970    -1.2470 H     1 <1>   0.0800 
@<TRIPOS>BOND
  1   1   2  1   
  2   1   3  1   
  3   2   4  1   
  4   2   5  2   
  5   3   6  2   
  6   3   7  1   
  7   4   8  2   
  8   5   6  1   
  9   5   9  1   
 10   6  10  1   
 11   7  27  1   
 12   7  28  1   
 13   7  29  1   
 14   8  11  1   
 15   8  12  1   
 16   9  12  am  
 17   9  13  2   
 18  10  30  1   
 19  10  31  1   
 20  10  32  1   
 21  11  14  1   
 22  12  15  1   
 23  14  16  1   
 24  14  33  1   
 25  14  34  1   
 26  15  17  1   
 27  15  35  1   
 28  15  36  1   
 29  16  18  2   
 30  16  19  am  
 31  17  20  2   
 32  17  37  1   
 33  19  21  1   
 34  19  38  1   
 35  20  39  1   
 36  20  40  1   
 37  21  22  1   
 38  21  23  1   
 39  21  41  1   
 40  22  24  1   
 41  22  42  1   
 42  22  43  1   
 43  23  25  1   
 44  23  44  1   
 45  23  45  1   
 46  24  26  1   
 47  24  46  1   
 48  24  47  1   
 49  25  26  1   
 50  25  48  1   
 51  25  49  1   
 52  26  50  1   
 53  26  51  1   
@<TRIPOS>SUBSTRUCTURE
  1 ****   8 GROUP 4 **** **** 0

# MOE 2024.06 (io_trps.svl 2023.06)
