@<TRIPOS>MOLECULE
2-Methyl-1,4-bis-(piperidine-1-sulfonyl)-piperazine
55 57 1 0 0 
SMALL
USER_CHARGES


@<TRIPOS>ATOM
  1 S        0.4860     0.5700    -1.1290 S.o2  1 <1>   1.5760 
  2 O       -0.1060     1.8570    -1.4270 O.2   1 <1>  -0.6500 
  3 O        1.2150    -0.1320    -2.1610 O.2   1 <1>  -0.6500 
  4 N        1.4820     0.7540     0.2270 N.am  1 <1>  -0.8490 
  5 N       -0.7510    -0.4090    -0.5330 N.am  1 <1>  -0.8490 
  6 C        2.3900    -0.3730     0.5710 C.3   1 <1>   0.2760 
  7 C        2.2270     2.0360     0.1070 C.3   1 <1>   0.1960 
  8 C       -1.5430     0.2790     0.4900 C.3   1 <1>   0.1960 
  9 C       -1.5980    -0.8940    -1.6210 C.3   1 <1>   0.1960 
 10 C        3.7330    -0.2690    -0.1910 C.3   1 <1>   0.1960 
 11 C        1.7720    -1.7710     0.4790 C.3   1 <1>  -0.2400 
 12 C        3.6370     2.0200     0.7290 C.3   1 <1>   0.1960 
 13 C       -2.5580    -0.6870     1.1070 C.3   1 <1>  -0.1600 
 14 C       -2.6240    -1.8990    -1.0870 C.3   1 <1>  -0.1600 
 15 N        4.4910     0.9610     0.1550 N.am  1 <1>  -0.8490 
 16 C       -3.4740    -1.2920     0.0360 C.3   1 <1>  -0.1600 
 17 S        5.7840     0.6380     1.1860 S.o2  1 <1>   1.5760 
 18 O        5.2800    -0.1880     2.2600 O.2   1 <1>  -0.6500 
 19 O        6.4680     1.8800     1.4670 O.2   1 <1>  -0.6500 
 20 N        6.7480    -0.2960     0.1670 N.am  1 <1>  -0.8490 
 21 C        7.7910    -0.9870     0.9240 C.3   1 <1>   0.1960 
 22 C        7.3240     0.5070    -0.9160 C.3   1 <1>   0.1960 
 23 C        8.5560    -1.9480     0.0080 C.3   1 <1>  -0.1600 
 24 C        8.0680    -0.3980    -1.9030 C.3   1 <1>  -0.1600 
 25 C        9.1570    -1.2150    -1.1970 C.3   1 <1>  -0.1600 
 26 H        2.6350    -0.2600     1.6140 H     1 <1>   0.0800 
 27 H        1.6420     2.8180     0.5590 H     1 <1>   0.0800 
 28 H        2.3560     2.2930    -0.9320 H     1 <1>   0.0800 
 29 H       -2.0550     1.1220     0.0550 H     1 <1>   0.0800 
 30 H       -0.8930     0.6450     1.2680 H     1 <1>   0.0800 
 31 H       -0.9890    -1.3820    -2.3640 H     1 <1>   0.0800 
 32 H       -2.1020    -0.0640    -2.0910 H     1 <1>   0.0800 
 33 H        3.5390    -0.2720    -1.2480 H     1 <1>   0.0800 
 34 H        4.3230    -1.1460     0.0150 H     1 <1>   0.0800 
 35 H        1.5750    -2.0590    -0.5370 H     1 <1>   0.0800 
 36 H        0.8630    -1.8130     1.0510 H     1 <1>   0.0800 
 37 H        2.4540    -2.4900     0.8950 H     1 <1>   0.0800 
 38 H        3.5330     1.8810     1.7930 H     1 <1>   0.0800 
 39 H        4.1100     2.9740     0.5720 H     1 <1>   0.0800 
 40 H       -3.1500    -0.1650     1.8370 H     1 <1>   0.0800 
 41 H       -2.0240    -1.4710     1.6150 H     1 <1>   0.0800 
 42 H       -2.0980    -2.7630    -0.7180 H     1 <1>   0.0800 
 43 H       -3.2610    -2.2210    -1.8910 H     1 <1>   0.0800 
 44 H       -4.1050    -0.5200    -0.3720 H     1 <1>   0.0800 
 45 H       -4.1050    -2.0470     0.4720 H     1 <1>   0.0800 
 46 H        7.3430    -1.5540     1.7240 H     1 <1>   0.0800 
 47 H        8.4680    -0.2680     1.3580 H     1 <1>   0.0800 
 48 H        7.9990     1.2430    -0.5110 H     1 <1>   0.0800 
 49 H        6.5390     1.0250    -1.4430 H     1 <1>   0.0800 
 50 H        7.8790    -2.7120    -0.3310 H     1 <1>   0.0800 
 51 H        9.3390    -2.4270     0.5690 H     1 <1>   0.0800 
 52 H        8.5100     0.2040    -2.6760 H     1 <1>   0.0800 
 53 H        7.3580    -1.0600    -2.3660 H     1 <1>   0.0800 
 54 H        9.5890    -1.9240    -1.8830 H     1 <1>   0.0800 
 55 H        9.9370    -0.5540    -0.8610 H     1 <1>   0.0800 
@<TRIPOS>BOND
  1   1   2  2   
  2   1   3  2   
  3   1   4  am  
  4   1   5  am  
  5   4   6  1   
  6   4   7  1   
  7   5   8  1   
  8   5   9  1   
  9   6  10  1   
 10   6  11  1   
 11   6  26  1   
 12   7  12  1   
 13   7  27  1   
 14   7  28  1   
 15   8  13  1   
 16   8  29  1   
 17   8  30  1   
 18   9  14  1   
 19   9  31  1   
 20   9  32  1   
 21  10  15  1   
 22  10  33  1   
 23  10  34  1   
 24  11  35  1   
 25  11  36  1   
 26  11  37  1   
 27  12  15  1   
 28  12  38  1   
 29  12  39  1   
 30  13  16  1   
 31  13  40  1   
 32  13  41  1   
 33  14  16  1   
 34  14  42  1   
 35  14  43  1   
 36  15  17  am  
 37  16  44  1   
 38  16  45  1   
 39  17  18  2   
 40  17  19  2   
 41  17  20  am  
 42  20  21  1   
 43  20  22  1   
 44  21  23  1   
 45  21  46  1   
 46  21  47  1   
 47  22  24  1   
 48  22  48  1   
 49  22  49  1   
 50  23  25  1   
 51  23  50  1   
 52  23  51  1   
 53  24  25  1   
 54  24  52  1   
 55  24  53  1   
 56  25  54  1   
 57  25  55  1   
@<TRIPOS>SUBSTRUCTURE
  1 ****  10 GROUP 4 **** **** 0

# MOE 2024.06 (io_trps.svl 2023.06)
