@<TRIPOS>MOLECULE
8-Benzylamino-7-(2-hydroxy-propyl)-3-methyl-3,7-dihydro-purine-2,6-dione
44 46 1 0 0 
SMALL
USER_CHARGES


@<TRIPOS>ATOM
  1 O        3.1280     1.2130     2.9240 O.2   1 <1>  -0.5760 
  2 C        3.7130     1.5070     1.9080 C.2   1 <1>   0.6850 
  3 N        4.9480     0.9690     1.5800 N.am  1 <1>  -0.4430 
  4 N        3.1320     2.4040     1.0580 N.am  1 <1>  -0.4960 
  5 C        5.5300     1.3770     0.3920 C.2   1 <1>   0.4190 
  6 C        5.6380    -0.0140     2.4660 C.3   1 <1>   0.0510 
  7 C        3.6960     2.8160    -0.1160 C.2   1 <1>   0.6980 
  8 N        6.7240     0.9930    -0.1150 N.pl3 1 <1>  -0.7050 
  9 C        4.9710     2.2600    -0.4660 C.2   1 <1>   0.2690 
 10 O        3.1010     3.6260    -0.8010 O.2   1 <1>  -0.5760 
 11 C        6.9290     1.6260    -1.2630 C.cat 1 <1>   1.0680 
 12 N        5.8760     2.3980    -1.5400 N.pl3 1 <1>  -0.7680 
 13 N        8.0140     1.5300    -2.0270 N.pl3 1 <1>  -0.7190 
 14 C        5.5940     3.2000    -2.7760 C.3   1 <1>   0.3470 
 15 C        9.2560     0.7210    -1.8990 C.3   1 <1>   0.3040 
 16 C        6.4970     4.4470    -2.9420 C.3   1 <1>   0.1920 
 17 C        9.2300    -0.1250    -0.6390 C.ar  1 <1>  -0.1520 
 18 O        7.8170     4.0630    -3.1340 O.3   1 <1>  -0.6850 
 19 C        6.4700     5.3890    -1.7390 C.3   1 <1>  -0.2480 
 20 C        9.7100     0.3900     0.5560 C.ar  1 <1>  -0.1590 
 21 C        8.6680    -1.3930    -0.6610 C.ar  1 <1>  -0.1590 
 22 C        9.6060    -0.3460     1.7220 C.ar  1 <1>  -0.1590 
 23 C        8.5640    -2.1280     0.5060 C.ar  1 <1>  -0.1590 
 24 C        9.0290    -1.6030     1.6990 C.ar  1 <1>  -0.1590 
 25 H        2.2280     2.7850     1.3280 H     1 <1>   0.3630 
 26 H        5.0360    -0.2410     3.3290 H     1 <1>   0.0710 
 27 H        6.5760     0.3920     2.8000 H     1 <1>   0.0710 
 28 H        5.8190    -0.9280     1.9270 H     1 <1>   0.0710 
 29 H        7.4130     0.3410     0.2800 H     1 <1>   0.4440 
 30 H        8.0830     2.2820    -2.7290 H     1 <1>   0.4440 
 31 H        4.5700     3.5280    -2.7650 H     1 <1>   0.0710 
 32 H        5.7080     2.5720    -3.6430 H     1 <1>   0.0710 
 33 H       10.1080     1.3800    -1.8720 H     1 <1>   0.0710 
 34 H        9.3580     0.0850    -2.7630 H     1 <1>   0.0710 
 35 H        6.1860     4.9830    -3.8240 H     1 <1>   0.0710 
 36 H        8.3640     4.8670    -3.2840 H     1 <1>   0.3930 
 37 H        6.8610     4.9100    -0.8590 H     1 <1>   0.0710 
 38 H        5.4570     5.6930    -1.5370 H     1 <1>   0.0710 
 39 H        7.0440     6.2760    -1.9440 H     1 <1>   0.0710 
 40 H       10.1650     1.3670     0.5920 H     1 <1>   0.1410 
 41 H        8.3030    -1.8180    -1.5820 H     1 <1>   0.1410 
 42 H        9.9820     0.0540     2.6500 H     1 <1>   0.1410 
 43 H        8.1300    -3.1140     0.4880 H     1 <1>   0.1410 
 44 H        8.9540    -2.1790     2.6060 H     1 <1>   0.1410 
@<TRIPOS>BOND
  1   1   2  2   
  2   2   3  am  
  3   2   4  am  
  4   3   5  1   
  5   3   6  1   
  6   4   7  am  
  7   4  25  1   
  8   5   8  1   
  9   5   9  2   
 10   6  26  1   
 11   6  27  1   
 12   6  28  1   
 13   7   9  1   
 14   7  10  2   
 15   8  11  ar  
 16   8  29  1   
 17   9  12  1   
 18  11  12  ar  
 19  11  13  ar  
 20  12  14  1   
 21  13  15  1   
 22  13  30  1   
 23  14  16  1   
 24  14  31  1   
 25  14  32  1   
 26  15  17  1   
 27  15  33  1   
 28  15  34  1   
 29  16  18  1   
 30  16  19  1   
 31  16  35  1   
 32  17  20  ar  
 33  17  21  ar  
 34  18  36  1   
 35  19  37  1   
 36  19  38  1   
 37  19  39  1   
 38  20  22  ar  
 39  20  40  1   
 40  21  23  ar  
 41  21  41  1   
 42  22  24  ar  
 43  22  42  1   
 44  23  24  ar  
 45  23  43  1   
 46  24  44  1   
@<TRIPOS>SUBSTRUCTURE
  1 ****   8 GROUP 4 **** **** 0

# MOE 2024.06 (io_trps.svl 2023.06)
