@<TRIPOS>MOLECULE
NONAME
44 48 1 0 0 
SMALL
USER_CHARGES


@<TRIPOS>ATOM
  1 O       -1.0590    -0.8050    -0.8120 O.2   1 <1>  -0.5700 
  2 C       -2.1210    -0.8920    -0.2510 C.2   1 <1>   0.6900 
  3 N       -2.3010    -0.7260     1.0770 N.am  1 <1>  -0.4900 
  4 N       -3.2950    -1.1510    -0.8600 N.am  1 <1>  -0.7300 
  5 C       -3.6020    -0.8780     1.4100 C.2   1 <1>   0.5690 
  6 C       -4.3910    -1.2660     0.1460 C.3   1 <1>   0.3610 
  7 O       -4.0590    -0.7780     2.5220 O.2   1 <1>  -0.5700 
  8 C       -5.6570    -0.3950    -0.1350 C.3   1 <1>   0.1430 
  9 C       -4.8090    -2.7480     0.2250 C.3   1 <1>  -0.0800 
 10 C       -5.5060     1.1440    -0.2610 C.ar  1 <1>  -0.1440 
 11 C       -6.6290    -0.6260     1.0490 C.3   1 <1>   0.3430 
 12 C       -6.2820    -0.8980    -1.4570 C.3   1 <1>   0.1100 
 13 C       -5.7480    -2.9740     1.4150 C.3   1 <1>   0.3430 
 14 C       -5.4470    -3.2080    -1.0910 C.3   1 <1>   0.1100 
 15 C       -6.6640     1.9110    -0.4010 C.ar  1 <1>  -0.1500 
 16 C       -4.2940     1.8310    -0.2500 C.ar  1 <1>  -0.1500 
 17 N       -6.9350    -2.0610     1.4120 N.4   1 <1>  -0.9590 
 18 N       -6.5700    -2.3440    -1.4580 N.3   1 <1>  -0.8100 
 19 C       -6.6170     3.2890    -0.5060 C.ar  1 <1>  -0.1500 
 20 C       -4.2420     3.2090    -0.3540 C.ar  1 <1>  -0.1500 
 21 C       -8.0810    -2.6230     0.6140 C.3   1 <1>   0.3430 
 22 C       -7.8860    -2.7320    -0.9160 C.3   1 <1>   0.1100 
 23 C       -5.4030     3.9440    -0.4800 C.ar  1 <1>  -0.1500 
 24 H       -1.5430    -0.4750     1.7060 H     1 <1>   0.3700 
 25 H       -3.3890    -1.2800    -1.8700 H     1 <1>   0.3700 
 26 H       -3.9330    -3.3510     0.3940 H     1 <1>   0.0800 
 27 H       -7.5540    -0.1180     0.8450 H     1 <1>   0.0800 
 28 H       -6.1990    -0.1430     1.9120 H     1 <1>   0.0800 
 29 H       -7.1860    -0.3610    -1.6850 H     1 <1>   0.0800 
 30 H       -5.5970    -0.6890    -2.2620 H     1 <1>   0.0800 
 31 H       -6.0770    -4.0010     1.4220 H     1 <1>   0.0800 
 32 H       -5.1900    -2.8120     2.3240 H     1 <1>   0.0800 
 33 H       -5.7750    -4.2330    -1.0210 H     1 <1>   0.0800 
 34 H       -4.7140    -3.1680    -1.8810 H     1 <1>   0.0800 
 35 H       -7.6390     1.4610    -0.4400 H     1 <1>   0.1500 
 36 H       -3.3500     1.3420    -0.1680 H     1 <1>   0.1500 
 37 H       -7.2630    -2.0320     2.3890 H     1 <1>   0.4500 
 38 H       -7.5260     3.8580    -0.6110 H     1 <1>   0.1500 
 39 H       -3.2910     3.7150    -0.3410 H     1 <1>   0.1500 
 40 H       -8.9580    -2.0230     0.7890 H     1 <1>   0.0800 
 41 H       -8.3120    -3.6090     0.9840 H     1 <1>   0.0800 
 42 H       -8.0870    -3.7490    -1.2090 H     1 <1>   0.0800 
 43 H       -8.6430    -2.1360    -1.3970 H     1 <1>   0.0800 
 44 H       -5.3610     5.0170    -0.5610 H     1 <1>   0.1500 
@<TRIPOS>BOND
  1   1   2  2   
  2   2   3  am  
  3   2   4  am  
  4   3   5  am  
  5   3  24  1   
  6   4   6  1   
  7   4  25  1   
  8   5   6  1   
  9   5   7  2   
 10   6   8  1   
 11   6   9  1   
 12   8  10  1   
 13   8  11  1   
 14   8  12  1   
 15   9  13  1   
 16   9  14  1   
 17   9  26  1   
 18  10  15  ar  
 19  10  16  ar  
 20  11  17  1   
 21  11  27  1   
 22  11  28  1   
 23  12  18  1   
 24  12  29  1   
 25  12  30  1   
 26  13  17  1   
 27  13  31  1   
 28  13  32  1   
 29  14  18  1   
 30  14  33  1   
 31  14  34  1   
 32  15  19  ar  
 33  15  35  1   
 34  16  20  ar  
 35  16  36  1   
 36  17  21  1   
 37  17  37  1   
 38  18  22  1   
 39  19  23  ar  
 40  19  38  1   
 41  20  23  ar  
 42  20  39  1   
 43  21  22  1   
 44  21  40  1   
 45  21  41  1   
 46  22  42  1   
 47  22  43  1   
 48  23  44  1   
@<TRIPOS>SUBSTRUCTURE
  1 ****   8 GROUP 4 **** **** 0

# MOE 2024.06 (io_trps.svl 2023.06)
