@<TRIPOS>MOLECULE
2-(2,3-Dimethyl-phenoxy)-N-(2-ethyl-2H-tetrazol-5-yl)-acetamide
37 38 1 0 0 
SMALL
USER_CHARGES


@<TRIPOS>ATOM
  1 O       -0.9410    -4.1230    -2.2700 O.2   1 <1>  -0.5700 
  2 C       -0.3210    -3.4260    -1.5040 C.2   1 <1>   0.5690 
  3 N       -0.8850    -2.4680    -0.7220 N.am  1 <1>  -0.4930 
  4 C        1.1840    -3.6350    -1.4110 C.3   1 <1>   0.1810 
  5 C       -2.1990    -2.0530    -0.5900 C.2   1 <1>   0.5790 
  6 O        1.7620    -2.7680    -0.4430 O.3   1 <1>  -0.3630 
  7 N       -3.2390    -2.5390    -1.2630 N.2   1 <1>  -0.2270 
  8 N       -2.4860    -1.1230     0.2370 N.2   1 <1>  -0.7070 
  9 C        3.0990    -2.7600    -0.1930 C.ar  1 <1>   0.0830 
 10 N       -4.2550    -1.8880    -0.8490 N.2   1 <1>  -0.4180 
 11 N       -3.7920    -1.0380     0.0500 N.pl3 1 <1>   0.5800 
 12 C        3.5760    -1.8610     0.7620 C.ar  1 <1>  -0.1440 
 13 C        3.9840    -3.6060    -0.8570 C.ar  1 <1>  -0.1500 
 14 C       -4.6500    -0.0850     0.7840 C.3   1 <1>   0.0960 
 15 C        4.9430    -1.8070     1.0320 C.ar  1 <1>  -0.1430 
 16 C        2.5780    -0.9520     1.4830 C.3   1 <1>  -0.0970 
 17 C        5.3340    -3.5520    -0.5780 C.ar  1 <1>  -0.1500 
 18 C       -4.6510     1.3020     0.1240 C.3   1 <1>  -0.2400 
 19 C        5.8090    -2.6560     0.3600 C.ar  1 <1>  -0.1500 
 20 C        5.5380    -0.8380     2.0450 C.3   1 <1>  -0.0970 
 21 H       -0.2490    -1.9550    -0.1180 H     1 <1>   0.3700 
 22 H        1.6300    -3.4260    -2.3660 H     1 <1>   0.0800 
 23 H        1.3840    -4.6510    -1.1220 H     1 <1>   0.0800 
 24 H        3.6500    -4.3110    -1.5930 H     1 <1>   0.1500 
 25 H       -4.2850    -0.0150     1.7920 H     1 <1>   0.0800 
 26 H       -5.6480    -0.4830     0.8080 H     1 <1>   0.0800 
 27 H        1.7080    -1.5130     1.7720 H     1 <1>   0.0800 
 28 H        2.2740    -0.1600     0.8230 H     1 <1>   0.0800 
 29 H        2.9840    -0.5190     2.3760 H     1 <1>   0.0800 
 30 H        6.0200    -4.2050    -1.0900 H     1 <1>   0.1500 
 31 H       -3.6550     1.7080     0.1070 H     1 <1>   0.0800 
 32 H       -5.2830     1.9710     0.6800 H     1 <1>   0.0800 
 33 H       -5.0250     1.2360    -0.8830 H     1 <1>   0.0800 
 34 H        6.8650    -2.6260     0.5630 H     1 <1>   0.1500 
 35 H        5.2110    -1.0960     3.0360 H     1 <1>   0.0800 
 36 H        5.2300     0.1680     1.8200 H     1 <1>   0.0800 
 37 H        6.6130    -0.8680     2.0270 H     1 <1>   0.0800 
@<TRIPOS>BOND
  1   1   2  2   
  2   2   3  am  
  3   2   4  1   
  4   3   5  1   
  5   3  21  1   
  6   4   6  1   
  7   4  22  1   
  8   4  23  1   
  9   5   7  1   
 10   5   8  2   
 11   6   9  1   
 12   7  10  2   
 13   8  11  1   
 14   9  12  ar  
 15   9  13  ar  
 16  10  11  1   
 17  11  14  1   
 18  12  15  ar  
 19  12  16  1   
 20  13  17  ar  
 21  13  24  1   
 22  14  18  1   
 23  14  25  1   
 24  14  26  1   
 25  15  19  ar  
 26  15  20  1   
 27  16  27  1   
 28  16  28  1   
 29  16  29  1   
 30  17  19  ar  
 31  17  30  1   
 32  18  31  1   
 33  18  32  1   
 34  18  33  1   
 35  19  34  1   
 36  20  35  1   
 37  20  36  1   
 38  20  37  1   
@<TRIPOS>SUBSTRUCTURE
  1 ****   6 GROUP 4 **** **** 0

# MOE 2024.06 (io_trps.svl 2023.06)
