@<TRIPOS>MOLECULE
2,2-Dimethyl-N-[1-(3-o-tolyl-[1,2,4]oxadiazol-5-yl)-ethyl]-propionamide
42 43 1 0 0 
SMALL
USER_CHARGES


@<TRIPOS>ATOM
  1 O       -0.9150    -1.0970    -0.5520 O.2   1 <1>  -0.5700 
  2 C       -2.0280    -0.6430    -0.4460 C.2   1 <1>   0.5690 
  3 N       -3.0240    -1.4350    -0.9190 N.am  1 <1>  -0.7300 
  4 C       -2.1730     0.7880     0.1630 C.3   1 <1>   0.0610 
  5 C       -4.5010    -1.3590    -0.9710 C.3   1 <1>   0.4000 
  6 C       -3.5350     1.1080     0.8120 C.3   1 <1>  -0.2400 
  7 C       -1.9120     1.8320    -0.9380 C.3   1 <1>  -0.2400 
  8 C       -1.1120     0.9980     1.2670 C.3   1 <1>  -0.2400 
  9 C       -5.1140    -2.7590    -0.9220 C.2   1 <1>   0.2980 
 10 C       -4.9040    -0.6270    -2.2510 C.3   1 <1>  -0.2400 
 11 O       -4.7290    -3.6450    -1.8040 O.3   1 <1>  -0.0190 
 12 N       -5.9840    -3.1650    -0.0900 N.2   1 <1>  -0.5650 
 13 N       -5.4070    -4.7060    -1.5040 N.2   1 <1>  -0.4100 
 14 C       -6.1510    -4.4290    -0.4930 C.2   1 <1>   0.4620 
 15 C       -7.0450    -5.3640     0.1660 C.ar  1 <1>   0.0540 
 16 C       -8.3780    -5.0740     0.4940 C.ar  1 <1>  -0.1440 
 17 C       -6.5600    -6.6310     0.4930 C.ar  1 <1>  -0.1500 
 18 C       -9.1630    -6.0190     1.1350 C.ar  1 <1>  -0.1500 
 19 C       -9.0080    -3.7290     0.1530 C.3   1 <1>  -0.0970 
 20 C       -7.3470    -7.5720     1.1290 C.ar  1 <1>  -0.1500 
 21 C       -8.6530    -7.2640     1.4550 C.ar  1 <1>  -0.1500 
 22 H       -2.6670    -2.3140    -1.2970 H     1 <1>   0.3700 
 23 H       -4.8770    -0.8340    -0.1160 H     1 <1>   0.0800 
 24 H       -3.4880     2.0420     1.3440 H     1 <1>   0.0800 
 25 H       -4.3030     1.2120     0.0700 H     1 <1>   0.0800 
 26 H       -3.8050     0.3390     1.5140 H     1 <1>   0.0800 
 27 H       -2.6350     1.7400    -1.7270 H     1 <1>   0.0800 
 28 H       -0.9340     1.6820    -1.3630 H     1 <1>   0.0800 
 29 H       -1.9610     2.8300    -0.5410 H     1 <1>   0.0800 
 30 H       -1.2450     0.2740     2.0520 H     1 <1>   0.0800 
 31 H       -1.1780     1.9830     1.6930 H     1 <1>   0.0800 
 32 H       -0.1200     0.8760     0.8680 H     1 <1>   0.0800 
 33 H       -4.5350    -1.1500    -3.1160 H     1 <1>   0.0800 
 34 H       -4.5160     0.3740    -2.2510 H     1 <1>   0.0800 
 35 H       -5.9760    -0.5750    -2.3150 H     1 <1>   0.0800 
 36 H       -5.5430    -6.8800     0.2430 H     1 <1>   0.1500 
 37 H      -10.1830    -5.7940     1.3920 H     1 <1>   0.1500 
 38 H       -8.7820    -3.4580    -0.8630 H     1 <1>   0.0800 
 39 H       -8.6250    -2.9690     0.8100 H     1 <1>   0.0800 
 40 H      -10.0770    -3.7630     0.2590 H     1 <1>   0.0800 
 41 H       -6.9440    -8.5400     1.3710 H     1 <1>   0.1500 
 42 H       -9.2720    -7.9910     1.9520 H     1 <1>   0.1500 
@<TRIPOS>BOND
  1   1   2  2   
  2   2   3  am  
  3   2   4  1   
  4   3   5  1   
  5   3  22  1   
  6   4   6  1   
  7   4   7  1   
  8   4   8  1   
  9   5   9  1   
 10   5  10  1   
 11   5  23  1   
 12   6  24  1   
 13   6  25  1   
 14   6  26  1   
 15   7  27  1   
 16   7  28  1   
 17   7  29  1   
 18   8  30  1   
 19   8  31  1   
 20   8  32  1   
 21   9  11  1   
 22   9  12  2   
 23  10  33  1   
 24  10  34  1   
 25  10  35  1   
 26  11  13  1   
 27  12  14  1   
 28  13  14  2   
 29  14  15  1   
 30  15  16  ar  
 31  15  17  ar  
 32  16  18  ar  
 33  16  19  1   
 34  17  20  ar  
 35  17  36  1   
 36  18  21  ar  
 37  18  37  1   
 38  19  38  1   
 39  19  39  1   
 40  19  40  1   
 41  20  21  ar  
 42  20  41  1   
 43  21  42  1   
@<TRIPOS>SUBSTRUCTURE
  1 ****   9 GROUP 4 **** **** 0

# MOE 2024.06 (io_trps.svl 2023.06)
