@<TRIPOS>MOLECULE
1-(2,5-Dimethoxy-benzenesulfonyl)-piperidine-4-carboxylic acid 4-methyl-benzylam
58 60 1 0 0 
SMALL
USER_CHARGES


@<TRIPOS>ATOM
  1 S       -0.0100    -1.2170     1.2370 S.o2  1 <1>   1.4470 
  2 O       -0.1540    -2.6570     1.2700 O.2   1 <1>  -0.6500 
  3 O        0.1580    -0.5360     2.5040 O.2   1 <1>  -0.6500 
  4 N        1.3870    -0.9000     0.3250 N.am  1 <1>  -0.8490 
  5 C       -1.3740    -0.5500     0.2420 C.ar  1 <1>  -0.0090 
  6 C        2.5200    -1.6840     0.8280 C.3   1 <1>   0.1960 
  7 C        1.7010     0.5320     0.2780 C.3   1 <1>   0.1960 
  8 C       -1.8150     0.7670     0.3580 C.ar  1 <1>   0.0820 
  9 C       -2.0070    -1.3630    -0.6920 C.ar  1 <1>  -0.1500 
 10 C        3.7500    -1.4910    -0.0610 C.3   1 <1>  -0.1600 
 11 C        2.9060     0.7930    -0.6280 C.3   1 <1>  -0.1600 
 12 O       -1.2190     1.6210     1.2160 O.3   1 <1>  -0.3620 
 13 C       -2.8540     1.2490    -0.4250 C.ar  1 <1>  -0.1500 
 14 C       -3.0540    -0.8920    -1.4780 C.ar  1 <1>   0.0820 
 15 C        4.1330    -0.0070    -0.1670 C.3   1 <1>  -0.0190 
 16 C       -1.9150     1.8930     2.4130 C.3   1 <1>   0.0400 
 17 C       -3.4730     0.4190    -1.3380 C.ar  1 <1>  -0.1500 
 18 O       -3.7080    -1.6470    -2.3970 O.3   1 <1>  -0.3630 
 19 C        5.3290     0.2090    -1.0920 C.2   1 <1>   0.5690 
 20 C       -3.3570    -2.9950    -2.6190 C.3   1 <1>   0.0400 
 21 O        5.2790    -0.1560    -2.2420 O.2   1 <1>  -0.5700 
 22 N        6.4330     0.8150    -0.5960 N.am  1 <1>  -0.7300 
 23 C        7.6470     1.0900    -1.3770 C.3   1 <1>   0.2840 
 24 C        8.6220     1.8130    -0.4670 C.ar  1 <1>  -0.1430 
 25 C        9.5230     1.0960     0.3040 C.ar  1 <1>  -0.1500 
 26 C        8.6120     3.1970    -0.3890 C.ar  1 <1>  -0.1500 
 27 C       10.4050     1.7560     1.1430 C.ar  1 <1>  -0.1500 
 28 C        9.4940     3.8560     0.4500 C.ar  1 <1>  -0.1500 
 29 C       10.3940     3.1390     1.2210 C.ar  1 <1>  -0.1430 
 30 C       11.3630     3.8620     2.1390 C.3   1 <1>  -0.0970 
 31 H        2.2640    -2.7310     0.8320 H     1 <1>   0.0800 
 32 H        2.7440    -1.3920     1.8420 H     1 <1>   0.0800 
 33 H        1.9000     0.9000     1.2720 H     1 <1>   0.0800 
 34 H        0.8610     1.0750    -0.1190 H     1 <1>   0.0800 
 35 H       -1.6630    -2.3760    -0.7920 H     1 <1>   0.1500 
 36 H        3.5360    -1.8850    -1.0400 H     1 <1>   0.0800 
 37 H        4.5740    -2.0510     0.3430 H     1 <1>   0.0800 
 38 H        3.1340     1.8440    -0.6240 H     1 <1>   0.0800 
 39 H        2.6480     0.5170    -1.6370 H     1 <1>   0.0800 
 40 H       -3.1690     2.2720    -0.3230 H     1 <1>   0.1500 
 41 H        4.4040     0.3360     0.8150 H     1 <1>   0.0800 
 42 H       -1.3060     2.5430     3.0140 H     1 <1>   0.0800 
 43 H       -2.0850     0.9670     2.9350 H     1 <1>   0.0800 
 44 H       -2.8490     2.3710     2.1790 H     1 <1>   0.0800 
 45 H       -4.2810     0.7810    -1.9490 H     1 <1>   0.1500 
 46 H       -4.0050    -3.3880    -3.3810 H     1 <1>   0.0800 
 47 H       -3.4900    -3.5470    -1.7060 H     1 <1>   0.0800 
 48 H       -2.3340    -3.0400    -2.9510 H     1 <1>   0.0800 
 49 H        6.4840     1.1330     0.3720 H     1 <1>   0.3700 
 50 H        7.3990     1.6980    -2.2300 H     1 <1>   0.0800 
 51 H        8.0700     0.1630    -1.7280 H     1 <1>   0.0800 
 52 H        9.5420     0.0210     0.2560 H     1 <1>   0.1500 
 53 H        7.9170     3.7670    -0.9800 H     1 <1>   0.1500 
 54 H       11.1010     1.1880     1.7340 H     1 <1>   0.1500 
 55 H        9.4780     4.9300     0.4980 H     1 <1>   0.1500 
 56 H       11.5980     3.2530     2.9930 H     1 <1>   0.0800 
 57 H       10.9340     4.7840     2.4880 H     1 <1>   0.0800 
 58 H       12.2720     4.0810     1.6080 H     1 <1>   0.0800 
@<TRIPOS>BOND
  1   1   2  2   
  2   1   3  2   
  3   1   4  am  
  4   1   5  1   
  5   4   6  1   
  6   4   7  1   
  7   5   8  ar  
  8   5   9  ar  
  9   6  10  1   
 10   6  31  1   
 11   6  32  1   
 12   7  11  1   
 13   7  33  1   
 14   7  34  1   
 15   8  12  1   
 16   8  13  ar  
 17   9  14  ar  
 18   9  35  1   
 19  10  15  1   
 20  10  36  1   
 21  10  37  1   
 22  11  15  1   
 23  11  38  1   
 24  11  39  1   
 25  12  16  1   
 26  13  17  ar  
 27  13  40  1   
 28  14  17  ar  
 29  14  18  1   
 30  15  19  1   
 31  15  41  1   
 32  16  42  1   
 33  16  43  1   
 34  16  44  1   
 35  17  45  1   
 36  18  20  1   
 37  19  21  2   
 38  19  22  am  
 39  20  46  1   
 40  20  47  1   
 41  20  48  1   
 42  22  23  1   
 43  22  49  1   
 44  23  24  1   
 45  23  50  1   
 46  23  51  1   
 47  24  25  ar  
 48  24  26  ar  
 49  25  27  ar  
 50  25  52  1   
 51  26  28  ar  
 52  26  53  1   
 53  27  29  ar  
 54  27  54  1   
 55  28  29  ar  
 56  28  55  1   
 57  29  30  1   
 58  30  56  1   
 59  30  57  1   
 60  30  58  1   
@<TRIPOS>SUBSTRUCTURE
  1 ****  11 GROUP 4 **** **** 0

# MOE 2024.06 (io_trps.svl 2023.06)
