@<TRIPOS>MOLECULE
1-(2-Ethoxy-phenyl)-5-oxo-pyrrolidine-3-carboxylic acid (2-ethyl-phenyl)-amide
50 52 1 0 0 
SMALL
USER_CHARGES


@<TRIPOS>ATOM
  1 O        0.1840     0.5580     1.6530 O.2   1 <1>  -0.5700 
  2 C        1.2960     0.1430     1.4400 C.2   1 <1>   0.5690 
  3 N        1.7070    -1.1540     1.5130 N.am  1 <1>  -0.4770 
  4 C        2.4230     1.0490     1.0280 C.3   1 <1>  -0.0990 
  5 C        0.9530    -2.2810     1.9090 C.ar  1 <1>   0.1170 
  6 C        3.1440    -1.2630     1.1940 C.3   1 <1>   0.1400 
  7 C        3.4720     0.0570     0.4960 C.3   1 <1>  -0.0190 
  8 C        0.9040    -3.4650     1.1580 C.ar  1 <1>   0.0830 
  9 C        0.2340    -2.2330     3.0980 C.ar  1 <1>  -0.1500 
 10 C        4.9310     0.4430     0.7030 C.2   1 <1>   0.5690 
 11 O        1.5410    -3.5800    -0.0330 O.3   1 <1>  -0.3630 
 12 C        0.1970    -4.5640     1.6140 C.ar  1 <1>  -0.1500 
 13 C       -0.4850    -3.3280     3.5460 C.ar  1 <1>  -0.1500 
 14 O        5.2480     1.1290     1.6400 O.2   1 <1>  -0.5700 
 15 N        5.8850    -0.0180    -0.1450 N.am  1 <1>  -0.5470 
 16 C        0.9230    -2.9350    -1.1220 C.3   1 <1>   0.1200 
 17 C       -0.5000    -4.4980     2.8080 C.ar  1 <1>  -0.1500 
 18 C        5.7390    -0.8770    -1.2390 C.ar  1 <1>   0.1170 
 19 C        1.9190    -2.8990    -2.2760 C.3   1 <1>  -0.2400 
 20 C        5.9490    -2.2530    -1.1260 C.ar  1 <1>  -0.1430 
 21 C        5.3710    -0.3410    -2.4670 C.ar  1 <1>  -0.1500 
 22 C        5.7760    -3.0600    -2.2390 C.ar  1 <1>  -0.1500 
 23 C        6.3710    -2.9060     0.1880 C.3   1 <1>  -0.0170 
 24 C        5.2010    -1.1540    -3.5710 C.ar  1 <1>  -0.1500 
 25 C        5.4030    -2.5170    -3.4570 C.ar  1 <1>  -0.1500 
 26 C        7.8950    -2.9240     0.3160 C.3   1 <1>  -0.2400 
 27 H        2.7670     1.5780     1.8980 H     1 <1>   0.0800 
 28 H        2.1070     1.7450     0.2740 H     1 <1>   0.0800 
 29 H        3.3560    -2.1020     0.5560 H     1 <1>   0.0800 
 30 H        3.6960    -1.3600     2.1130 H     1 <1>   0.0800 
 31 H        3.2860    -0.0760    -0.5540 H     1 <1>   0.0800 
 32 H        0.2390    -1.3270     3.6760 H     1 <1>   0.1500 
 33 H        0.1900    -5.4660     1.0300 H     1 <1>   0.1500 
 34 H       -1.0320    -3.2670     4.4710 H     1 <1>   0.1500 
 35 H        6.8360     0.2480     0.1130 H     1 <1>   0.3700 
 36 H        0.6440    -1.9370    -0.8290 H     1 <1>   0.0800 
 37 H        0.0410    -3.4920    -1.3850 H     1 <1>   0.0800 
 38 H       -1.0530    -5.3520     3.1590 H     1 <1>   0.1500 
 39 H        2.7940    -2.3430    -1.9920 H     1 <1>   0.0800 
 40 H        1.4720    -2.4220    -3.1290 H     1 <1>   0.0800 
 41 H        2.2040    -3.8990    -2.5510 H     1 <1>   0.0800 
 42 H        5.2180     0.7190    -2.5560 H     1 <1>   0.1500 
 43 H        5.9340    -4.1220    -2.1660 H     1 <1>   0.1500 
 44 H        6.0000    -3.9160     0.2230 H     1 <1>   0.0800 
 45 H        5.9460    -2.3850     1.0270 H     1 <1>   0.0800 
 46 H        4.9150    -0.7290    -4.5180 H     1 <1>   0.1500 
 47 H        5.2730    -3.1560    -4.3140 H     1 <1>   0.1500 
 48 H        8.3310    -3.4680    -0.5040 H     1 <1>   0.0800 
 49 H        8.1840    -3.3970     1.2370 H     1 <1>   0.0800 
 50 H        8.2830    -1.9210     0.3070 H     1 <1>   0.0800 
@<TRIPOS>BOND
  1   1   2  2   
  2   2   3  am  
  3   2   4  1   
  4   3   5  1   
  5   3   6  1   
  6   4   7  1   
  7   4  27  1   
  8   4  28  1   
  9   5   8  ar  
 10   5   9  ar  
 11   6   7  1   
 12   6  29  1   
 13   6  30  1   
 14   7  10  1   
 15   7  31  1   
 16   8  11  1   
 17   8  12  ar  
 18   9  13  ar  
 19   9  32  1   
 20  10  14  2   
 21  10  15  am  
 22  11  16  1   
 23  12  17  ar  
 24  12  33  1   
 25  13  17  ar  
 26  13  34  1   
 27  15  18  1   
 28  15  35  1   
 29  16  19  1   
 30  16  36  1   
 31  16  37  1   
 32  17  38  1   
 33  18  20  ar  
 34  18  21  ar  
 35  19  39  1   
 36  19  40  1   
 37  19  41  1   
 38  20  22  ar  
 39  20  23  1   
 40  21  24  ar  
 41  21  42  1   
 42  22  25  ar  
 43  22  43  1   
 44  23  26  1   
 45  23  44  1   
 46  23  45  1   
 47  24  25  ar  
 48  24  46  1   
 49  25  47  1   
 50  26  48  1   
 51  26  49  1   
 52  26  50  1   
@<TRIPOS>SUBSTRUCTURE
  1 ****   6 GROUP 4 **** **** 0

# MOE 2024.06 (io_trps.svl 2023.06)
