@<TRIPOS>MOLECULE
5-Ethyl-8-fluoro-3-(2-morpholin-4-yl-ethylsulfanyl)-5H-[1,2,4]triazino[5,6-b]ind
46 49 1 0 0 
SMALL
USER_CHARGES


@<TRIPOS>ATOM
  1 S       -0.6010     2.1150    -1.4500 S.3   1 <1>  -0.3320 
  2 C       -2.3640     1.9890    -1.1710 C.ar  1 <1>   0.7220 
  3 C        0.1230     0.6920    -0.5120 C.3   1 <1>   0.0700 
  4 N       -3.0990     2.9520    -1.7680 N.ar  1 <1>  -0.3100 
  5 N       -2.7660     0.9940    -0.4210 N.ar  1 <1>  -0.5670 
  6 C        1.6500     0.6660    -0.6880 C.3   1 <1>   0.3430 
  7 N       -4.3930     2.9530    -1.6260 N.ar  1 <1>  -0.2560 
  8 C       -4.0980     1.0070    -0.2880 C.ar  1 <1>   0.1050 
  9 N        2.3810     1.6800     0.1460 N.4   1 <1>  -0.9590 
 10 C       -4.9020     1.9670    -0.8780 C.ar  1 <1>   0.2560 
 11 N       -4.8860     0.1280     0.4110 N.pl3 1 <1>   0.0480 
 12 C        2.1130     3.1200    -0.2180 C.3   1 <1>   0.3430 
 13 C        3.8620     1.4270     0.1640 C.3   1 <1>   0.3430 
 14 C       -6.2440     1.6680    -0.5270 C.ar  1 <1>   0.0000 
 15 C       -6.2070     0.5240     0.2710 C.ar  1 <1>  -0.1520 
 16 C       -4.4080    -1.0470     1.1720 C.3   1 <1>   0.0960 
 17 C        3.0270     4.0930     0.5600 C.3   1 <1>   0.1200 
 18 C        4.5960     2.4240     1.0940 C.3   1 <1>   0.1200 
 19 C       -7.4660     2.2740    -0.8250 C.ar  1 <1>  -0.1500 
 20 C       -7.3820    -0.0360     0.7830 C.ar  1 <1>  -0.1500 
 21 C       -4.4850    -2.3120     0.3110 C.3   1 <1>  -0.2400 
 22 O        3.7290     3.4190     1.5680 O.3   1 <1>  -0.5600 
 23 C       -8.6060     1.7050    -0.3080 C.ar  1 <1>   0.1900 
 24 C       -8.5900     0.5620     0.4890 C.ar  1 <1>  -0.1500 
 25 F       -9.7640     2.2540    -0.5730 F     1 <1>  -0.1900 
 26 H       -0.3170    -0.1960    -0.9310 H     1 <1>   0.0800 
 27 H       -0.1670     0.7840     0.5200 H     1 <1>   0.0800 
 28 H        1.8850     0.8090    -1.7300 H     1 <1>   0.0800 
 29 H        1.9930    -0.3170    -0.4090 H     1 <1>   0.0800 
 30 H        2.0890     1.6050     1.1330 H     1 <1>   0.4500 
 31 H        1.0900     3.3680     0.0090 H     1 <1>   0.0800 
 32 H        2.2540     3.2710    -1.2750 H     1 <1>   0.0800 
 33 H        4.2610     1.5260    -0.8320 H     1 <1>   0.0800 
 34 H        4.0670     0.4230     0.4980 H     1 <1>   0.0800 
 35 H       -5.0110    -1.1600     2.0540 H     1 <1>   0.0800 
 36 H       -3.3910    -0.8730     1.4770 H     1 <1>   0.0800 
 37 H        2.4380     4.8650     1.0240 H     1 <1>   0.0800 
 38 H        3.7360     4.5630    -0.1000 H     1 <1>   0.0800 
 39 H        5.4130     2.8960     0.5760 H     1 <1>   0.0800 
 40 H        4.9950     1.9070     1.9490 H     1 <1>   0.0800 
 41 H       -7.5050     3.1560    -1.4380 H     1 <1>   0.1500 
 42 H       -7.3450    -0.9200     1.3950 H     1 <1>   0.1500 
 43 H       -5.5000    -2.5020     0.0110 H     1 <1>   0.0800 
 44 H       -4.1330    -3.1580     0.8740 H     1 <1>   0.0800 
 45 H       -3.8700    -2.2060    -0.5650 H     1 <1>   0.0800 
 46 H       -9.5170     0.1660     0.8610 H     1 <1>   0.1500 
@<TRIPOS>BOND
  1   1   2  1   
  2   1   3  1   
  3   2   4  ar  
  4   2   5  ar  
  5   3   6  1   
  6   3  26  1   
  7   3  27  1   
  8   4   7  ar  
  9   5   8  ar  
 10   6   9  1   
 11   6  28  1   
 12   6  29  1   
 13   7  10  ar  
 14   8  10  ar  
 15   8  11  1   
 16   9  12  1   
 17   9  13  1   
 18   9  30  1   
 19  10  14  1   
 20  11  15  1   
 21  11  16  1   
 22  12  17  1   
 23  12  31  1   
 24  12  32  1   
 25  13  18  1   
 26  13  33  1   
 27  13  34  1   
 28  14  15  ar  
 29  14  19  ar  
 30  15  20  ar  
 31  16  21  1   
 32  16  35  1   
 33  16  36  1   
 34  17  22  1   
 35  17  37  1   
 36  17  38  1   
 37  18  22  1   
 38  18  39  1   
 39  18  40  1   
 40  19  23  ar  
 41  19  41  1   
 42  20  24  ar  
 43  20  42  1   
 44  21  43  1   
 45  21  44  1   
 46  21  45  1   
 47  23  24  ar  
 48  23  25  1   
 49  24  46  1   
@<TRIPOS>SUBSTRUCTURE
  1 ****   5 GROUP 4 **** **** 0

# MOE 2024.06 (io_trps.svl 2023.06)
