@<TRIPOS>MOLECULE
3-(3,4-Dimethoxy-phenyl)-6-ethyl-2,5-dimethyl-4H-pyrazolo[1,5-a]pyrimidin-7-one
45 47 1 0 0 
SMALL
USER_CHARGES


@<TRIPOS>ATOM
  1 O       -0.3500     0.5200    -0.9560 O.2   1 <1>  -0.5700 
  2 C        0.1020     1.6170    -0.6390 C.2   1 <1>   0.5650 
  3 N       -0.7390     2.7590    -0.5490 N.pl3 1 <1>   0.5610 
  4 C        1.5010     1.8000    -0.3430 C.2   1 <1>  -0.1240 
  5 N       -2.0910     2.8910    -0.7740 N.2   1 <1>  -0.7070 
  6 C       -0.2210     3.9730    -0.1940 C.2   1 <1>  -0.0680 
  7 C        1.9830     3.0250     0.0300 C.2   1 <1>  -0.0380 
  8 C        2.4010     0.5660    -0.4670 C.3   1 <1>  -0.0220 
  9 C       -2.3540     4.1380    -0.5640 C.2   1 <1>   0.1080 
 10 N        1.1370     4.1050     0.0990 N.pl3 1 <1>  -0.5840 
 11 C       -1.2300     4.8850    -0.1900 C.2   1 <1>  -0.0540 
 12 C        3.4200     3.3530     0.4060 C.3   1 <1>  -0.1020 
 13 C        2.4330    -0.2190     0.8470 C.3   1 <1>  -0.2400 
 14 C       -3.7520     4.6940    -0.7270 C.3   1 <1>  -0.0590 
 15 C       -1.1540     6.2890     0.1230 C.ar  1 <1>   0.0540 
 16 C       -0.2840     7.1240    -0.5720 C.ar  1 <1>  -0.1500 
 17 C       -1.9340     6.8470     1.1320 C.ar  1 <1>  -0.1500 
 18 C       -0.1890     8.4720    -0.2770 C.ar  1 <1>   0.0830 
 19 C       -1.8650     8.1980     1.4250 C.ar  1 <1>  -0.1500 
 20 O        0.7130     9.2000    -0.9820 O.3   1 <1>  -0.3620 
 21 C       -1.0090     9.0220     0.7150 C.ar  1 <1>   0.0830 
 22 C        1.7560     9.8060    -0.2490 C.3   1 <1>   0.0400 
 23 O       -1.0160    10.3430     1.0200 O.3   1 <1>  -0.3630 
 24 C       -1.5240    11.2050     0.0260 C.3   1 <1>   0.0400 
 25 H        3.4000     0.8480    -0.7450 H     1 <1>   0.0800 
 26 H        2.0450    -0.0770    -1.2550 H     1 <1>   0.0800 
 27 H        1.4840     5.0290     0.3910 H     1 <1>   0.4000 
 28 H        3.8760     3.9330    -0.3760 H     1 <1>   0.0800 
 29 H        4.0120     2.4750     0.5740 H     1 <1>   0.0800 
 30 H        3.4360     3.9280     1.3150 H     1 <1>   0.0800 
 31 H        2.7990     0.4000     1.6470 H     1 <1>   0.0800 
 32 H        3.0750    -1.0760     0.7500 H     1 <1>   0.0800 
 33 H        1.4430    -0.5600     1.0970 H     1 <1>   0.0800 
 34 H       -4.3020     4.0900    -1.4260 H     1 <1>   0.0800 
 35 H       -3.7130     5.7020    -1.0960 H     1 <1>   0.0800 
 36 H       -4.2600     4.6790     0.2190 H     1 <1>   0.0800 
 37 H        0.3300     6.7150    -1.3540 H     1 <1>   0.1500 
 38 H       -2.5990     6.2140     1.6920 H     1 <1>   0.1500 
 39 H       -2.4760     8.6210     2.2020 H     1 <1>   0.1500 
 40 H        2.4730    10.1980    -0.9470 H     1 <1>   0.0800 
 41 H        2.2180     9.0650     0.3780 H     1 <1>   0.0800 
 42 H        1.3570    10.6050     0.3490 H     1 <1>   0.0800 
 43 H       -1.5320    12.2050     0.4200 H     1 <1>   0.0800 
 44 H       -2.5250    10.8980    -0.2220 H     1 <1>   0.0800 
 45 H       -0.8940    11.1590    -0.8440 H     1 <1>   0.0800 
@<TRIPOS>BOND
  1   1   2  2   
  2   2   3  1   
  3   2   4  1   
  4   3   5  1   
  5   3   6  1   
  6   4   7  2   
  7   4   8  1   
  8   5   9  2   
  9   6  10  1   
 10   6  11  2   
 11   7  10  1   
 12   7  12  1   
 13   8  13  1   
 14   8  25  1   
 15   8  26  1   
 16   9  11  1   
 17   9  14  1   
 18  10  27  1   
 19  11  15  1   
 20  12  28  1   
 21  12  29  1   
 22  12  30  1   
 23  13  31  1   
 24  13  32  1   
 25  13  33  1   
 26  14  34  1   
 27  14  35  1   
 28  14  36  1   
 29  15  16  ar  
 30  15  17  ar  
 31  16  18  ar  
 32  16  37  1   
 33  17  19  ar  
 34  17  38  1   
 35  18  20  1   
 36  18  21  ar  
 37  19  21  ar  
 38  19  39  1   
 39  20  22  1   
 40  21  23  1   
 41  22  40  1   
 42  22  41  1   
 43  22  42  1   
 44  23  24  1   
 45  24  43  1   
 46  24  44  1   
 47  24  45  1   
@<TRIPOS>SUBSTRUCTURE
  1 ****  11 GROUP 4 **** **** 0

# MOE 2024.06 (io_trps.svl 2023.06)
