@<TRIPOS>MOLECULE
7-(2-Ethoxy-ethyl)-1,3-dimethyl-8-(3-methyl-piperidin-1-ylmethyl)-3,7-dihydro-pu
56 58 1 0 0 
SMALL
USER_CHARGES


@<TRIPOS>ATOM
  1 O        0.5430    -0.0130     1.5600 O.2   1 <1>  -0.5700 
  2 C        1.3650     0.6700     0.9840 C.2   1 <1>   0.6900 
  3 N        0.9460     1.6590     0.0990 N.am  1 <1>  -0.4200 
  4 N        2.7170     0.4590     1.2050 N.am  1 <1>  -0.4360 
  5 C        1.8630     2.4130    -0.6230 C.2   1 <1>   0.7030 
  6 C       -0.5220     1.8790    -0.0940 C.3   1 <1>   0.0600 
  7 C        3.6190     1.2140     0.4800 C.2   1 <1>   0.4260 
  8 C        3.1920    -0.5730     2.1730 C.3   1 <1>   0.0600 
  9 O        1.4850     3.2720    -1.4030 O.2   1 <1>  -0.5700 
 10 C        3.2600     2.1580    -0.4230 C.2   1 <1>   0.2770 
 11 N        4.9720     1.1670     0.5240 N.pl3 1 <1>  -0.7000 
 12 N        4.4470     2.6820    -0.9470 N.pl3 1 <1>  -0.7640 
 13 C        5.4510     2.0660    -0.3260 C.cat 1 <1>   0.6560 
 14 C        4.5240     3.7780    -1.9610 C.3   1 <1>   0.3540 
 15 C        6.9650     2.2780    -0.4870 C.3   1 <1>   0.2540 
 16 C        4.7270     5.1450    -1.2930 C.3   1 <1>   0.1200 
 17 N        7.7330     1.0740    -0.0650 N.3   1 <1>  -0.8100 
 18 O        5.8770     5.1050    -0.5000 O.3   1 <1>  -0.5600 
 19 C        7.7330     0.0350    -1.1160 C.3   1 <1>   0.1100 
 20 C        9.1110     1.4330     0.3090 C.3   1 <1>   0.1100 
 21 C        6.1490     6.2940     0.1660 C.3   1 <1>   0.1200 
 22 C        8.4010    -1.2480    -0.6000 C.3   1 <1>  -0.0800 
 23 C        9.8290     0.2070     0.8800 C.3   1 <1>  -0.1600 
 24 C        7.3990     6.0690     1.0060 C.3   1 <1>  -0.2400 
 25 C        9.8300    -0.9560    -0.1190 C.3   1 <1>  -0.1600 
 26 C        8.4160    -2.3300    -1.6870 C.3   1 <1>  -0.2400 
 27 H       -0.9090     1.1440    -0.7780 H     1 <1>   0.0800 
 28 H       -0.7200     2.8610    -0.4860 H     1 <1>   0.0800 
 29 H       -1.0380     1.7820     0.8460 H     1 <1>   0.0800 
 30 H        2.4060    -0.8470     2.8560 H     1 <1>   0.0800 
 31 H        4.0160    -0.1900     2.7500 H     1 <1>   0.0800 
 32 H        3.5070    -1.4530     1.6400 H     1 <1>   0.0800 
 33 H        5.6030     0.5730     1.0700 H     1 <1>   0.4500 
 34 H        3.6250     3.7990    -2.5530 H     1 <1>   0.0800 
 35 H        5.3440     3.5950    -2.6340 H     1 <1>   0.0800 
 36 H        7.2380     3.1080     0.1400 H     1 <1>   0.0800 
 37 H        7.2020     2.5370    -1.5040 H     1 <1>   0.0800 
 38 H        3.8790     5.3830    -0.6730 H     1 <1>   0.0800 
 39 H        4.8490     5.9090    -2.0420 H     1 <1>   0.0800 
 40 H        8.2640     0.3920    -1.9840 H     1 <1>   0.0800 
 41 H        6.7230    -0.1930    -1.4090 H     1 <1>   0.0800 
 42 H        9.0980     2.2070     1.0590 H     1 <1>   0.0800 
 43 H        9.6460     1.8020    -0.5510 H     1 <1>   0.0800 
 44 H        5.3110     6.5470     0.7940 H     1 <1>   0.0800 
 45 H        6.3140     7.0740    -0.5600 H     1 <1>   0.0800 
 46 H        7.8240    -1.6150     0.2320 H     1 <1>   0.0800 
 47 H        9.3380    -0.0940     1.7890 H     1 <1>   0.0800 
 48 H       10.8420     0.4700     1.1270 H     1 <1>   0.0800 
 49 H        7.2300     5.2880     1.7260 H     1 <1>   0.0800 
 50 H        7.6440     6.9720     1.5370 H     1 <1>   0.0800 
 51 H        8.2300     5.8090     0.3760 H     1 <1>   0.0800 
 52 H       10.4490    -0.6950    -0.9610 H     1 <1>   0.0800 
 53 H       10.2500    -1.8320     0.3440 H     1 <1>   0.0800 
 54 H        8.9810    -2.0050    -2.5420 H     1 <1>   0.0800 
 55 H        7.4130    -2.5600    -2.0030 H     1 <1>   0.0800 
 56 H        8.8630    -3.2320    -1.3060 H     1 <1>   0.0800 
@<TRIPOS>BOND
  1   1   2  2   
  2   2   3  am  
  3   2   4  am  
  4   3   5  am  
  5   3   6  1   
  6   4   7  1   
  7   4   8  1   
  8   5   9  2   
  9   5  10  1   
 10   6  27  1   
 11   6  28  1   
 12   6  29  1   
 13   7  10  2   
 14   7  11  1   
 15   8  30  1   
 16   8  31  1   
 17   8  32  1   
 18  10  12  1   
 19  11  13  ar  
 20  11  33  1   
 21  12  13  ar  
 22  12  14  1   
 23  13  15  1   
 24  14  16  1   
 25  14  34  1   
 26  14  35  1   
 27  15  17  1   
 28  15  36  1   
 29  15  37  1   
 30  16  18  1   
 31  16  38  1   
 32  16  39  1   
 33  17  19  1   
 34  17  20  1   
 35  18  21  1   
 36  19  22  1   
 37  19  40  1   
 38  19  41  1   
 39  20  23  1   
 40  20  42  1   
 41  20  43  1   
 42  21  24  1   
 43  21  44  1   
 44  21  45  1   
 45  22  25  1   
 46  22  26  1   
 47  22  46  1   
 48  23  25  1   
 49  23  47  1   
 50  23  48  1   
 51  24  49  1   
 52  24  50  1   
 53  24  51  1   
 54  25  52  1   
 55  25  53  1   
 56  26  54  1   
 57  26  55  1   
 58  26  56  1   
@<TRIPOS>SUBSTRUCTURE
  1 ****  13 GROUP 4 **** **** 0

# MOE 2024.06 (io_trps.svl 2023.06)
