@<TRIPOS>MOLECULE
1-(4-Fluoro-benzenesulfonyl)-piperidine-3-carboxylic acid allylamide
41 42 1 0 0 
SMALL
USER_CHARGES


@<TRIPOS>ATOM
  1 S        0.2420    -0.5210     1.3130 S.o2  1 <1>   1.4470 
  2 O       -0.6530    -1.4290     1.9950 O.2   1 <1>  -0.6500 
  3 O        1.3810     0.0220     2.0250 O.2   1 <1>  -0.6500 
  4 N        0.8620    -1.3520    -0.0280 N.am  1 <1>  -0.8490 
  5 C       -0.7270     0.8180     0.5600 C.ar  1 <1>  -0.0090 
  6 C        1.9180    -0.6040    -0.7490 C.3   1 <1>   0.1960 
  7 C        1.2080    -2.7430     0.3140 C.3   1 <1>   0.1960 
  8 C       -1.6620     0.5440    -0.4370 C.ar  1 <1>  -0.1500 
  9 C       -0.5610     2.1420     0.9660 C.ar  1 <1>  -0.1500 
 10 C        3.3240    -1.0940    -0.3800 C.3   1 <1>  -0.0190 
 11 C        2.1710    -3.3540    -0.7100 C.3   1 <1>  -0.1600 
 12 C       -2.4080     1.5550    -1.0200 C.ar  1 <1>  -0.1500 
 13 C       -1.2980     3.1660     0.3950 C.ar  1 <1>  -0.1500 
 14 C        4.3750    -0.2020    -1.0220 C.2   1 <1>   0.5690 
 15 C        3.5000    -2.5770    -0.7790 C.3   1 <1>  -0.1600 
 16 C       -2.2110     2.8520    -0.5920 C.ar  1 <1>   0.1900 
 17 O        4.2720     0.0910    -2.1880 O.2   1 <1>  -0.5700 
 18 N        5.4010     0.2460    -0.2600 N.am  1 <1>  -0.7300 
 19 F       -2.9100     3.8100    -1.1350 F     1 <1>  -0.1900 
 20 C        6.5000     1.0870    -0.7460 C.3   1 <1>   0.2780 
 21 C        7.7390     0.6810     0.0190 C.2   1 <1>  -0.2880 
 22 C        8.3980     1.4500     0.8910 C.2   1 <1>  -0.3000 
 23 H        1.8350     0.4530    -0.5560 H     1 <1>   0.0800 
 24 H        1.7740    -0.7440    -1.8070 H     1 <1>   0.0800 
 25 H        0.3040    -3.3280     0.3650 H     1 <1>   0.0800 
 26 H        1.6740    -2.7730     1.2870 H     1 <1>   0.0800 
 27 H       -1.8030    -0.4750    -0.7570 H     1 <1>   0.1500 
 28 H        0.1550     2.3720     1.7380 H     1 <1>   0.1500 
 29 H        3.4280    -1.0050     0.6860 H     1 <1>   0.0800 
 30 H        1.6900    -3.3450    -1.6730 H     1 <1>   0.0800 
 31 H        2.3650    -4.3810    -0.4570 H     1 <1>   0.0800 
 32 H       -3.1290     1.3440    -1.7910 H     1 <1>   0.1500 
 33 H       -1.1710     4.1880     0.7060 H     1 <1>   0.1500 
 34 H        4.2240    -3.0270    -0.1240 H     1 <1>   0.0800 
 35 H        3.8820    -2.6450    -1.7840 H     1 <1>   0.0800 
 36 H        5.4620     0.0120     0.7310 H     1 <1>   0.3700 
 37 H        6.2640     2.1220    -0.5640 H     1 <1>   0.0800 
 38 H        6.6440     0.9440    -1.8050 H     1 <1>   0.0800 
 39 H        8.0460    -0.3250    -0.2160 H     1 <1>   0.1500 
 40 H        9.2790     1.1330     1.4230 H     1 <1>   0.1500 
 41 H        8.1190     2.4580     1.1480 H     1 <1>   0.1500 
@<TRIPOS>BOND
  1   1   2  2   
  2   1   3  2   
  3   1   4  am  
  4   1   5  1   
  5   4   6  1   
  6   4   7  1   
  7   5   8  ar  
  8   5   9  ar  
  9   6  10  1   
 10   6  23  1   
 11   6  24  1   
 12   7  11  1   
 13   7  25  1   
 14   7  26  1   
 15   8  12  ar  
 16   8  27  1   
 17   9  13  ar  
 18   9  28  1   
 19  10  14  1   
 20  10  15  1   
 21  10  29  1   
 22  11  15  1   
 23  11  30  1   
 24  11  31  1   
 25  12  16  ar  
 26  12  32  1   
 27  13  16  ar  
 28  13  33  1   
 29  14  17  2   
 30  14  18  am  
 31  15  34  1   
 32  15  35  1   
 33  16  19  1   
 34  18  20  1   
 35  18  36  1   
 36  20  21  1   
 37  20  37  1   
 38  20  38  1   
 39  21  22  2   
 40  21  39  1   
 41  22  40  1   
 42  22  41  1   
@<TRIPOS>SUBSTRUCTURE
  1 ****   6 GROUP 4 **** **** 0

# MOE 2024.06 (io_trps.svl 2023.06)
