@<TRIPOS>MOLECULE
2-Chloro-1-(2,6-dimethyl-piperidin-1-yl)-ethanone
28 28 1 0 0 
SMALL
USER_CHARGES


@<TRIPOS>ATOM
  1 CL       0.1100    -0.9150    -2.2220 Cl    1 <1>  -0.2900 
  2 C        1.0940     0.2110    -1.2850 C.3   1 <1>   0.1910 
  3 C        2.4500    -0.3900    -0.9320 C.2   1 <1>   0.5690 
  4 O        3.4010     0.2030    -1.3900 O.2   1 <1>  -0.5700 
  5 N        2.6350    -1.5220    -0.1600 N.am  1 <1>  -0.6600 
  6 C        1.6540    -2.2900     0.6700 C.3   1 <1>   0.2200 
  7 C        3.9360    -2.2520    -0.3080 C.3   1 <1>   0.2200 
  8 C        1.2240    -3.5550    -0.0940 C.3   1 <1>  -0.1600 
  9 C        0.4710    -1.5030     1.2310 C.3   1 <1>  -0.2400 
 10 C        3.7410    -3.7850    -0.3090 C.3   1 <1>  -0.1600 
 11 C        4.8960    -1.8080     0.7950 C.3   1 <1>  -0.2400 
 12 C        2.3790    -4.1860    -0.8980 C.3   1 <1>  -0.1600 
 13 H        0.5480     0.5070    -0.4130 H     1 <1>   0.0800 
 14 H        1.2400     1.0760    -1.9040 H     1 <1>   0.0800 
 15 H        2.1990    -2.6220     1.5380 H     1 <1>   0.0800 
 16 H        4.3690    -1.9890    -1.2590 H     1 <1>   0.0800 
 17 H        0.4120    -3.3280    -0.7610 H     1 <1>   0.0800 
 18 H        0.8560    -4.2680     0.6220 H     1 <1>   0.0800 
 19 H       -0.2830    -1.3320     0.4860 H     1 <1>   0.0800 
 20 H        0.8060    -0.5730     1.6550 H     1 <1>   0.0800 
 21 H        0.0120    -2.0770     2.0150 H     1 <1>   0.0800 
 22 H        3.8170    -4.1680     0.6940 H     1 <1>   0.0800 
 23 H        4.5340    -4.2360    -0.8800 H     1 <1>   0.0800 
 24 H        4.5030    -2.0450     1.7660 H     1 <1>   0.0800 
 25 H        5.0570    -0.7460     0.7280 H     1 <1>   0.0800 
 26 H        5.8440    -2.3000     0.6750 H     1 <1>   0.0800 
 27 H        2.3290    -3.8300    -1.9140 H     1 <1>   0.0800 
 28 H        2.2750    -5.2570    -0.9180 H     1 <1>   0.0800 
@<TRIPOS>BOND
  1   1   2  1   
  2   2   3  1   
  3   2  13  1   
  4   2  14  1   
  5   3   4  2   
  6   3   5  am  
  7   5   6  1   
  8   5   7  1   
  9   6   8  1   
 10   6   9  1   
 11   6  15  1   
 12   7  10  1   
 13   7  11  1   
 14   7  16  1   
 15   8  12  1   
 16   8  17  1   
 17   8  18  1   
 18   9  19  1   
 19   9  20  1   
 20   9  21  1   
 21  10  12  1   
 22  10  22  1   
 23  10  23  1   
 24  11  24  1   
 25  11  25  1   
 26  11  26  1   
 27  12  27  1   
 28  12  28  1   
@<TRIPOS>SUBSTRUCTURE
  1 ****   5 GROUP 4 **** **** 0

# MOE 2024.06 (io_trps.svl 2023.06)
