@<TRIPOS>MOLECULE
4-Ethoxy-N-(3-imidazol-1-yl-propyl)-benzenesulfonamide
40 41 1 0 0 
SMALL
USER_CHARGES


@<TRIPOS>ATOM
  1 S        0.0060     0.5790    -0.6400 S.o2  1 <1>   1.4470 
  2 O        1.2570    -0.0170    -0.2330 O.2   1 <1>  -0.6500 
  3 O       -0.0940     1.2670    -1.9080 O.2   1 <1>  -0.6500 
  4 N       -0.2960     1.7120     0.5630 N.am  1 <1>  -0.9140 
  5 C       -1.3570    -0.6030    -0.4550 C.ar  1 <1>  -0.0090 
  6 C        0.1330     3.0730     0.2750 C.3   1 <1>   0.1960 
  7 C       -1.1270    -1.9200    -0.0670 C.ar  1 <1>  -0.1500 
  8 C       -2.6730    -0.2180    -0.6900 C.ar  1 <1>  -0.1500 
  9 C        1.6580     3.1950     0.3300 C.3   1 <1>  -0.1600 
 10 C       -2.1670    -2.8220     0.0830 C.ar  1 <1>  -0.1500 
 11 C       -3.7190    -1.1110    -0.5430 C.ar  1 <1>  -0.1500 
 12 C        2.0950     4.6330     0.0260 C.3   1 <1>   0.0960 
 13 C       -3.4770    -2.4180    -0.1560 C.ar  1 <1>   0.0830 
 14 N        3.5600     4.7630     0.1420 N.pl3 1 <1>   0.0480 
 15 O       -4.5540    -3.2300    -0.0350 O.3   1 <1>  -0.3630 
 16 C        4.2640     5.3700     1.1240 C.2   1 <1>   0.0360 
 17 C        4.4930     4.3050    -0.7110 C.2   1 <1>  -0.3020 
 18 C       -4.4210    -4.5800     0.3440 C.3   1 <1>   0.1200 
 19 N        5.5460     5.3290     0.9570 N.2   1 <1>  -0.5650 
 20 C        5.6930     4.6570    -0.2000 C.2   1 <1>   0.0770 
 21 C       -5.8140    -5.2020     0.3780 C.3   1 <1>  -0.2400 
 22 H        0.2390     1.3670     1.3580 H     1 <1>   0.4200 
 23 H       -0.3000     3.7260     1.0150 H     1 <1>   0.0800 
 24 H       -0.2410     3.3830    -0.6890 H     1 <1>   0.0800 
 25 H       -0.1180    -2.2460     0.1210 H     1 <1>   0.1500 
 26 H       -2.8790     0.7950    -0.9920 H     1 <1>   0.1500 
 27 H        2.1060     2.5440    -0.4010 H     1 <1>   0.0800 
 28 H        2.0050     2.9180     1.3100 H     1 <1>   0.0800 
 29 H       -1.9400    -3.8270     0.3840 H     1 <1>   0.1500 
 30 H       -4.7320    -0.8010    -0.7290 H     1 <1>   0.1500 
 31 H        1.6340     5.3180     0.7140 H     1 <1>   0.0800 
 32 H        1.8080     4.9050    -0.9750 H     1 <1>   0.0800 
 33 H        3.7850     5.8410     1.9640 H     1 <1>   0.1500 
 34 H        4.2630     3.7650    -1.6120 H     1 <1>   0.1500 
 35 H       -3.9630    -4.6180     1.3170 H     1 <1>   0.0800 
 36 H       -3.8000    -5.0780    -0.3820 H     1 <1>   0.0800 
 37 H        6.6700     4.4580    -0.6090 H     1 <1>   0.1500 
 38 H       -6.4300    -4.6870     1.0940 H     1 <1>   0.0800 
 39 H       -5.7450    -6.2360     0.6650 H     1 <1>   0.0800 
 40 H       -6.2680    -5.1450    -0.5940 H     1 <1>   0.0800 
@<TRIPOS>BOND
  1   1   2  2   
  2   1   3  2   
  3   1   4  am  
  4   1   5  1   
  5   4   6  1   
  6   4  22  1   
  7   5   7  ar  
  8   5   8  ar  
  9   6   9  1   
 10   6  23  1   
 11   6  24  1   
 12   7  10  ar  
 13   7  25  1   
 14   8  11  ar  
 15   8  26  1   
 16   9  12  1   
 17   9  27  1   
 18   9  28  1   
 19  10  13  ar  
 20  10  29  1   
 21  11  13  ar  
 22  11  30  1   
 23  12  14  1   
 24  12  31  1   
 25  12  32  1   
 26  13  15  1   
 27  14  16  1   
 28  14  17  1   
 29  15  18  1   
 30  16  19  2   
 31  16  33  1   
 32  17  20  2   
 33  17  34  1   
 34  18  21  1   
 35  18  35  1   
 36  18  36  1   
 37  19  20  1   
 38  20  37  1   
 39  21  38  1   
 40  21  39  1   
 41  21  40  1   
@<TRIPOS>SUBSTRUCTURE
  1 ****   1 GROUP 4 **** **** 0

# MOE 2024.06 (io_trps.svl 2023.06)
