@<TRIPOS>MOLECULE
3-(4-Morpholin-4-yl-2,3-dihydro-1H-6-thia-5,8,10-triaza-cyclopenta[c]fluoren-7-y
51 55 1 0 0 
SMALL
USER_CHARGES


@<TRIPOS>ATOM
  1 S       -0.3660    -0.3300    -0.1520 S.3   1 <1>  -0.0800 
  2 C       -1.9020     0.5440    -0.1140 C.ar  1 <1>   0.2970 
  3 C        0.5770     1.1770    -0.1580 C.ar  1 <1>   0.0400 
  4 N       -3.0460    -0.1050    -0.0980 N.ar  1 <1>  -0.5670 
  5 C       -1.6760     1.9190    -0.1050 C.ar  1 <1>   0.0000 
  6 C        1.9650     1.3580    -0.1840 C.ar  1 <1>   0.4100 
  7 C       -0.2820     2.2430    -0.1330 C.ar  1 <1>   0.3070 
  8 C       -4.1190     0.6800    -0.0710 C.ar  1 <1>   0.4100 
  9 C       -2.8150     2.7200    -0.0660 C.ar  1 <1>  -0.1430 
 10 N        2.4610     2.6030    -0.1860 N.ar  1 <1>  -0.6200 
 11 N        2.9080     0.4060    -0.2070 N.pl3 1 <1>  -0.8690 
 12 N        0.2800     3.4770    -0.1400 N.ar  1 <1>  -0.1250 
 13 N       -5.3460     0.0660    -0.0590 N.pl3 1 <1>  -0.8380 
 14 C       -4.0210     2.0810    -0.0530 C.ar  1 <1>  -0.1430 
 15 C       -2.9880     4.2230    -0.0250 C.3   1 <1>  -0.0170 
 16 C        1.6280     3.6050    -0.1650 C.ar  1 <1>   0.5210 
 17 C        2.7720    -1.0660    -0.2110 C.3   1 <1>   0.2090 
 18 C       -6.1170    -0.0100    -1.3310 C.3   1 <1>   0.2090 
 19 C       -5.5290    -1.1670     0.7640 C.3   1 <1>   0.2090 
 20 C       -5.1670     3.0640     0.0020 C.3   1 <1>  -0.0170 
 21 C       -4.4790     4.4030     0.3090 C.3   1 <1>  -0.1600 
 22 C        4.1640    -1.6870    -0.2800 C.3   1 <1>  -0.1600 
 23 C       -7.5860    -0.3810    -1.0550 C.3   1 <1>   0.1200 
 24 C       -7.0250    -1.4870     0.9380 C.3   1 <1>   0.1200 
 25 C        4.0720    -3.2120    -0.3000 C.3   1 <1>   0.1200 
 26 O       -7.6760    -1.5590    -0.3020 O.3   1 <1>  -0.5600 
 27 O        5.3530    -3.7240    -0.2970 O.3   1 <1>  -0.6800 
 28 H        3.8810     0.7310    -0.2080 H     1 <1>   0.4000 
 29 H       -0.3190     4.3020    -0.1270 H     1 <1>   0.4570 
 30 H       -2.7770     4.6450    -0.9930 H     1 <1>   0.0800 
 31 H       -2.3820     4.6850     0.7330 H     1 <1>   0.0800 
 32 H        2.0400     4.6040    -0.1690 H     1 <1>   0.1500 
 33 H        2.1920    -1.3730    -1.0650 H     1 <1>   0.0800 
 34 H        2.2730    -1.3850     0.6890 H     1 <1>   0.0800 
 35 H       -5.6770    -0.7580    -1.9690 H     1 <1>   0.0800 
 36 H       -6.0730     0.9330    -1.8450 H     1 <1>   0.0800 
 37 H       -5.0740    -1.0250     1.7290 H     1 <1>   0.0800 
 38 H       -5.0410    -1.9960     0.2820 H     1 <1>   0.0800 
 39 H       -5.8760     2.7960     0.7670 H     1 <1>   0.0800 
 40 H       -5.6620     3.1000    -0.9530 H     1 <1>   0.0800 
 41 H       -4.9220     5.2130    -0.2440 H     1 <1>   0.0800 
 42 H       -4.5820     4.6070     1.3620 H     1 <1>   0.0800 
 43 H        4.7280    -1.3840     0.5860 H     1 <1>   0.0800 
 44 H        4.6590    -1.3480    -1.1730 H     1 <1>   0.0800 
 45 H       -8.1070    -0.5430    -1.9810 H     1 <1>   0.0800 
 46 H       -8.0760     0.4100    -0.5150 H     1 <1>   0.0800 
 47 H       -7.5020    -0.7280     1.5330 H     1 <1>   0.0800 
 48 H       -7.1450    -2.4370     1.4270 H     1 <1>   0.0800 
 49 H        3.5650    -3.5680    -1.1810 H     1 <1>   0.0800 
 50 H        3.5700    -3.5820     0.5780 H     1 <1>   0.0800 
 51 H        5.8440    -3.4500    -1.0950 H     1 <1>   0.4000 
@<TRIPOS>BOND
  1   1   2  1   
  2   1   3  1   
  3   2   4  ar  
  4   2   5  ar  
  5   3   6  ar  
  6   3   7  ar  
  7   4   8  ar  
  8   5   7  1   
  9   5   9  ar  
 10   6  10  ar  
 11   6  11  1   
 12   7  12  ar  
 13   8  13  1   
 14   8  14  ar  
 15   9  14  ar  
 16   9  15  1   
 17  10  16  ar  
 18  11  17  1   
 19  11  28  1   
 20  12  16  ar  
 21  12  29  1   
 22  13  18  1   
 23  13  19  1   
 24  14  20  1   
 25  15  21  1   
 26  15  30  1   
 27  15  31  1   
 28  16  32  1   
 29  17  22  1   
 30  17  33  1   
 31  17  34  1   
 32  18  23  1   
 33  18  35  1   
 34  18  36  1   
 35  19  24  1   
 36  19  37  1   
 37  19  38  1   
 38  20  21  1   
 39  20  39  1   
 40  20  40  1   
 41  21  41  1   
 42  21  42  1   
 43  22  25  1   
 44  22  43  1   
 45  22  44  1   
 46  23  26  1   
 47  23  45  1   
 48  23  46  1   
 49  24  26  1   
 50  24  47  1   
 51  24  48  1   
 52  25  27  1   
 53  25  49  1   
 54  25  50  1   
 55  27  51  1   
@<TRIPOS>SUBSTRUCTURE
  1 ****   2 GROUP 4 **** **** 0

# MOE 2024.06 (io_trps.svl 2023.06)
