@<TRIPOS>MOLECULE
4-tert-Butyl-N-(5-ethoxymethyl-[1,3,4]thiadiazol-2-yl)-benzamide
43 44 1 0 0 
SMALL
USER_CHARGES


@<TRIPOS>ATOM
  1 S        0.4110    -0.8630     0.2100 S.3   1 <1>  -0.0800 
  2 C        1.4980    -1.3210    -1.0590 C.2   1 <1>   0.4420 
  3 C       -0.8250    -0.7270    -0.9950 C.2   1 <1>   0.1980 
  4 N        0.9250    -1.3300    -2.2080 N.2   1 <1>  -0.3380 
  5 N        2.7950    -1.5960    -0.6790 N.am  1 <1>  -0.4940 
  6 N       -0.4000    -0.9910    -2.1640 N.2   1 <1>  -0.3380 
  7 C       -2.2210    -0.3100    -0.5660 C.3   1 <1>   0.3000 
  8 C        3.8660    -2.0230    -1.4240 C.2   1 <1>   0.5440 
  9 O       -2.6290    -1.0470     0.5500 O.3   1 <1>  -0.5600 
 10 O        3.7210    -2.3270    -2.5880 O.2   1 <1>  -0.5700 
 11 C        5.1640    -2.1380    -0.7880 C.ar  1 <1>   0.0860 
 12 C       -3.9230    -0.7770     0.9690 C.3   1 <1>   0.1200 
 13 C        5.5900    -1.2500     0.1990 C.ar  1 <1>  -0.1500 
 14 C        6.0450    -3.1570    -1.1400 C.ar  1 <1>  -0.1500 
 15 C       -4.1980    -1.6440     2.1900 C.3   1 <1>  -0.2400 
 16 C        6.8200    -1.3870     0.8170 C.ar  1 <1>  -0.1500 
 17 C        7.2750    -3.2950    -0.5240 C.ar  1 <1>  -0.1500 
 18 C        7.6900    -2.4170     0.4710 C.ar  1 <1>  -0.1430 
 19 C        9.0720    -2.6130     1.1310 C.3   1 <1>   0.1430 
 20 C        9.1320    -3.9980     1.7950 C.3   1 <1>  -0.2400 
 21 C        9.3800    -1.5670     2.2150 C.3   1 <1>  -0.2400 
 22 C       10.1710    -2.5120     0.0630 C.3   1 <1>  -0.2400 
 23 H        2.9700    -1.5110     0.3170 H     1 <1>   0.3700 
 24 H       -2.9110    -0.4880    -1.3710 H     1 <1>   0.0800 
 25 H       -2.2240     0.7340    -0.3070 H     1 <1>   0.0800 
 26 H       -4.6070    -1.0180     0.1720 H     1 <1>   0.0800 
 27 H       -4.0000     0.2680     1.2220 H     1 <1>   0.0800 
 28 H        4.9580    -0.4290     0.4870 H     1 <1>   0.1500 
 29 H        5.7550    -3.8510    -1.9110 H     1 <1>   0.1500 
 30 H       -4.1050    -2.6840     1.9330 H     1 <1>   0.0800 
 31 H       -5.1960    -1.4670     2.5470 H     1 <1>   0.0800 
 32 H       -3.5040    -1.4060     2.9770 H     1 <1>   0.0800 
 33 H        7.0810    -0.6670     1.5700 H     1 <1>   0.1500 
 34 H        7.9130    -4.1030    -0.8350 H     1 <1>   0.1500 
 35 H        8.3440    -4.0920     2.5210 H     1 <1>   0.0800 
 36 H       10.0740    -4.1400     2.2930 H     1 <1>   0.0800 
 37 H        9.0180    -4.7820     1.0700 H     1 <1>   0.0800 
 38 H        8.6510    -1.6120     3.0040 H     1 <1>   0.0800 
 39 H        9.3830    -0.5770     1.7950 H     1 <1>   0.0800 
 40 H       10.3480    -1.7450     2.6490 H     1 <1>   0.0800 
 41 H       10.0650    -3.2810    -0.6790 H     1 <1>   0.0800 
 42 H       11.1450    -2.6110     0.5090 H     1 <1>   0.0800 
 43 H       10.1170    -1.5580    -0.4310 H     1 <1>   0.0800 
@<TRIPOS>BOND
  1   1   2  1   
  2   1   3  1   
  3   2   4  2   
  4   2   5  1   
  5   3   6  2   
  6   3   7  1   
  7   4   6  1   
  8   5   8  am  
  9   5  23  1   
 10   7   9  1   
 11   7  24  1   
 12   7  25  1   
 13   8  10  2   
 14   8  11  1   
 15   9  12  1   
 16  11  13  ar  
 17  11  14  ar  
 18  12  15  1   
 19  12  26  1   
 20  12  27  1   
 21  13  16  ar  
 22  13  28  1   
 23  14  17  ar  
 24  14  29  1   
 25  15  30  1   
 26  15  31  1   
 27  15  32  1   
 28  16  18  ar  
 29  16  33  1   
 30  17  18  ar  
 31  17  34  1   
 32  18  19  1   
 33  19  20  1   
 34  19  21  1   
 35  19  22  1   
 36  20  35  1   
 37  20  36  1   
 38  20  37  1   
 39  21  38  1   
 40  21  39  1   
 41  21  40  1   
 42  22  41  1   
 43  22  42  1   
 44  22  43  1   
@<TRIPOS>SUBSTRUCTURE
  1 ****   5 GROUP 4 **** **** 0

# MOE 2024.06 (io_trps.svl 2023.06)
