@<TRIPOS>MOLECULE
4-[3-(3,4-Dimethoxy-phenyl)-[1,2,4]oxadiazol-5-ylmethyl]-piperazine-1-carboxylic
51 53 1 0 0 
SMALL
USER_CHARGES


@<TRIPOS>ATOM
  1 O       -1.1340    -1.0290     2.2010 O.2   1 <1>  -0.5700 
  2 C       -0.8900    -1.5480     1.1280 C.2   1 <1>   0.7800 
  3 O        0.3370    -2.0140     0.8850 O.3   1 <1>  -0.4300 
  4 N       -1.8290    -1.6850     0.1430 N.am  1 <1>  -0.6600 
  5 C        1.3560    -1.9020     1.8510 C.3   1 <1>   0.1200 
  6 C       -1.5820    -2.3720    -1.1560 C.3   1 <1>   0.1400 
  7 C       -3.2360    -1.2230     0.3140 C.3   1 <1>   0.1400 
  8 C        2.6240    -2.5260     1.2770 C.3   1 <1>  -0.2400 
  9 C       -2.6020    -3.5040    -1.3670 C.3   1 <1>   0.1100 
 10 C       -4.2200    -2.3780     0.0600 C.3   1 <1>   0.1100 
 11 N       -3.9940    -3.0170    -1.2590 N.3   1 <1>  -0.8100 
 12 C       -4.9590    -4.1150    -1.5020 C.3   1 <1>   0.2900 
 13 C       -6.4120    -3.6490    -1.5420 C.2   1 <1>   0.2980 
 14 O       -6.7860    -2.8470    -2.5040 O.3   1 <1>  -0.0190 
 15 N       -7.3220    -3.9730    -0.7170 N.2   1 <1>  -0.5650 
 16 N       -8.0440    -2.6400    -2.2700 N.2   1 <1>  -0.4100 
 17 C       -8.3660    -3.3000    -1.2140 C.2   1 <1>   0.4620 
 18 C       -9.6840    -3.3370    -0.6030 C.ar  1 <1>   0.0540 
 19 C      -10.7540    -2.6250    -1.1440 C.ar  1 <1>  -0.1500 
 20 C       -9.9410    -4.0820     0.5480 C.ar  1 <1>  -0.1500 
 21 C      -12.0160    -2.6390    -0.5780 C.ar  1 <1>   0.0820 
 22 C      -11.1970    -4.1200     1.1260 C.ar  1 <1>  -0.1500 
 23 O      -12.9470    -1.8800    -1.2220 O.3   1 <1>  -0.3630 
 24 C      -12.2570    -3.4090     0.5710 C.ar  1 <1>   0.0820 
 25 C      -13.9210    -1.1670    -0.4920 C.3   1 <1>   0.0400 
 26 O      -13.5100    -3.4620     1.1080 O.3   1 <1>  -0.3630 
 27 C      -13.8460    -4.3610     2.1420 C.3   1 <1>   0.0400 
 28 H        1.0400    -2.4180     2.7430 H     1 <1>   0.0800 
 29 H        1.5040    -0.8580     2.0710 H     1 <1>   0.0800 
 30 H       -0.5880    -2.7800    -1.1910 H     1 <1>   0.0800 
 31 H       -1.6770    -1.6580    -1.9550 H     1 <1>   0.0800 
 32 H       -3.4340    -0.4300    -0.3840 H     1 <1>   0.0800 
 33 H       -3.3890    -0.8370     1.3070 H     1 <1>   0.0800 
 34 H        2.4570    -3.5640     1.0530 H     1 <1>   0.0800 
 35 H        3.4200    -2.4540     1.9950 H     1 <1>   0.0800 
 36 H        2.9200    -2.0060     0.3830 H     1 <1>   0.0800 
 37 H       -2.4240    -4.2740    -0.6350 H     1 <1>   0.0800 
 38 H       -2.4460    -3.9270    -2.3440 H     1 <1>   0.0800 
 39 H       -5.2200    -1.9820     0.1070 H     1 <1>   0.0800 
 40 H       -4.1130    -3.1060     0.8460 H     1 <1>   0.0800 
 41 H       -4.8580    -4.8600    -0.7320 H     1 <1>   0.0800 
 42 H       -4.7360    -4.5780    -2.4470 H     1 <1>   0.0800 
 43 H      -10.6030    -2.0370    -2.0310 H     1 <1>   0.1500 
 44 H       -9.1420    -4.6440     1.0000 H     1 <1>   0.1500 
 45 H      -11.3250    -4.7150     2.0090 H     1 <1>   0.1500 
 46 H      -14.2710    -0.3570    -1.1040 H     1 <1>   0.0800 
 47 H      -13.4770    -0.7850     0.4100 H     1 <1>   0.0800 
 48 H      -14.7370    -1.8290    -0.2650 H     1 <1>   0.0800 
 49 H      -14.8990    -4.2680     2.3350 H     1 <1>   0.0800 
 50 H      -13.2900    -4.1020     3.0250 H     1 <1>   0.0800 
 51 H      -13.6210    -5.3630     1.8210 H     1 <1>   0.0800 
@<TRIPOS>BOND
  1   1   2  2   
  2   2   3  1   
  3   2   4  am  
  4   3   5  1   
  5   4   6  1   
  6   4   7  1   
  7   5   8  1   
  8   5  28  1   
  9   5  29  1   
 10   6   9  1   
 11   6  30  1   
 12   6  31  1   
 13   7  10  1   
 14   7  32  1   
 15   7  33  1   
 16   8  34  1   
 17   8  35  1   
 18   8  36  1   
 19   9  11  1   
 20   9  37  1   
 21   9  38  1   
 22  10  11  1   
 23  10  39  1   
 24  10  40  1   
 25  11  12  1   
 26  12  13  1   
 27  12  41  1   
 28  12  42  1   
 29  13  14  1   
 30  13  15  2   
 31  14  16  1   
 32  15  17  1   
 33  16  17  2   
 34  17  18  1   
 35  18  19  ar  
 36  18  20  ar  
 37  19  21  ar  
 38  19  43  1   
 39  20  22  ar  
 40  20  44  1   
 41  21  23  1   
 42  21  24  ar  
 43  22  24  ar  
 44  22  45  1   
 45  23  25  1   
 46  24  26  1   
 47  25  46  1   
 48  25  47  1   
 49  25  48  1   
 50  26  27  1   
 51  27  49  1   
 52  27  50  1   
 53  27  51  1   
@<TRIPOS>SUBSTRUCTURE
  1 ****  15 GROUP 4 **** **** 0

# MOE 2024.06 (io_trps.svl 2023.06)
