@<TRIPOS>MOLECULE
[2-Methyl-4-(4-methyl-piperidine-1-sulfonyl)-phenoxy]-acetic acid methyl ester
46 47 1 0 0 
SMALL
USER_CHARGES


@<TRIPOS>ATOM
  1 S        0.0440    -0.1760    -1.9200 S.o2  1 <1>   1.4470 
  2 O       -0.5860     1.0190    -2.4430 O.2   1 <1>  -0.6500 
  3 O        0.0030    -1.3930    -2.7010 O.2   1 <1>  -0.6500 
  4 N       -0.7040    -0.5070    -0.4350 N.am  1 <1>  -0.8490 
  5 C        1.7610     0.1750    -1.4510 C.ar  1 <1>  -0.0090 
  6 C       -2.0070    -1.1480    -0.6280 C.3   1 <1>   0.1960 
  7 C       -0.8270     0.6940     0.3980 C.3   1 <1>   0.1960 
  8 C        2.4700    -0.7000    -0.6370 C.ar  1 <1>  -0.1500 
  9 C        2.4120     1.3210    -1.8890 C.ar  1 <1>  -0.1500 
 10 C       -2.5970    -1.5740     0.7200 C.3   1 <1>  -0.1600 
 11 C       -1.3620     0.3250     1.7840 C.3   1 <1>  -0.1600 
 12 C        3.7800    -0.4500    -0.2610 C.ar  1 <1>  -0.1430 
 13 C        3.7200     1.5890    -1.5270 C.ar  1 <1>  -0.1500 
 14 C       -2.7190    -0.3850     1.6820 C.3   1 <1>  -0.0800 
 15 C        4.4150     0.7030    -0.7080 C.ar  1 <1>   0.0830 
 16 C        4.5080    -1.4410     0.6360 C.3   1 <1>  -0.0970 
 17 C       -3.2010    -0.8440     3.0620 C.3   1 <1>  -0.2400 
 18 O        5.7020     0.9010    -0.3160 O.3   1 <1>  -0.3630 
 19 C        6.4320     2.0800    -0.6270 C.3   1 <1>   0.1810 
 20 C        5.9430     3.2880     0.1610 C.2   1 <1>   0.6590 
 21 O        5.4430     4.2370    -0.3900 O.2   1 <1>  -0.5700 
 22 O        6.1230     3.2520     1.4780 O.3   1 <1>  -0.4300 
 23 C        5.7110     4.3140     2.3130 C.3   1 <1>   0.0400 
 24 H       -1.8950    -2.0240    -1.2450 H     1 <1>   0.0800 
 25 H       -2.6780    -0.4680    -1.1300 H     1 <1>   0.0800 
 26 H       -1.4900     1.4030    -0.0730 H     1 <1>   0.0800 
 27 H        0.1370     1.1600     0.5110 H     1 <1>   0.0800 
 28 H        1.9740    -1.5940    -0.2950 H     1 <1>   0.1500 
 29 H        1.8870     2.0160    -2.5230 H     1 <1>   0.1500 
 30 H       -1.9600    -2.3300     1.1470 H     1 <1>   0.0800 
 31 H       -3.5650    -2.0120     0.5580 H     1 <1>   0.0800 
 32 H       -1.4630     1.2190     2.3730 H     1 <1>   0.0800 
 33 H       -0.6450    -0.3130     2.2710 H     1 <1>   0.0800 
 34 H        4.1700     2.4910    -1.8960 H     1 <1>   0.1500 
 35 H       -3.4400     0.3080     1.2810 H     1 <1>   0.0800 
 36 H        3.8740    -2.2670     0.9010 H     1 <1>   0.0800 
 37 H        4.8280    -0.9500     1.5370 H     1 <1>   0.0800 
 38 H        5.3740    -1.8240     0.1260 H     1 <1>   0.0800 
 39 H       -2.5040    -1.5400     3.4960 H     1 <1>   0.0800 
 40 H       -4.1600    -1.3250     2.9810 H     1 <1>   0.0800 
 41 H       -3.3000    -0.0010     3.7230 H     1 <1>   0.0800 
 42 H        6.3680     2.2600    -1.6830 H     1 <1>   0.0800 
 43 H        7.4580     1.8930    -0.3720 H     1 <1>   0.0800 
 44 H        5.9530     4.0610     3.3300 H     1 <1>   0.0800 
 45 H        4.6480     4.4470     2.2070 H     1 <1>   0.0800 
 46 H        6.2300     5.2100     2.0200 H     1 <1>   0.0800 
@<TRIPOS>BOND
  1   1   2  2   
  2   1   3  2   
  3   1   4  am  
  4   1   5  1   
  5   4   6  1   
  6   4   7  1   
  7   5   8  ar  
  8   5   9  ar  
  9   6  10  1   
 10   6  24  1   
 11   6  25  1   
 12   7  11  1   
 13   7  26  1   
 14   7  27  1   
 15   8  12  ar  
 16   8  28  1   
 17   9  13  ar  
 18   9  29  1   
 19  10  14  1   
 20  10  30  1   
 21  10  31  1   
 22  11  14  1   
 23  11  32  1   
 24  11  33  1   
 25  12  15  ar  
 26  12  16  1   
 27  13  15  ar  
 28  13  34  1   
 29  14  17  1   
 30  14  35  1   
 31  15  18  1   
 32  16  36  1   
 33  16  37  1   
 34  16  38  1   
 35  17  39  1   
 36  17  40  1   
 37  17  41  1   
 38  18  19  1   
 39  19  20  1   
 40  19  42  1   
 41  19  43  1   
 42  20  21  2   
 43  20  22  1   
 44  22  23  1   
 45  23  44  1   
 46  23  45  1   
 47  23  46  1   
@<TRIPOS>SUBSTRUCTURE
  1 ****   5 GROUP 4 **** **** 0

# MOE 2024.06 (io_trps.svl 2023.06)
