@<TRIPOS>MOLECULE
8-(4-Ethoxy-phenyl)-1,6,7-trimethyl-3-(2-oxo-propyl)-1H,8H-imidazo[2,1-f]purine-
54 57 1 0 0 
SMALL
USER_CHARGES


@<TRIPOS>ATOM
  1 O        0.5780     0.0330     0.1590 O.2   1 <1>  -0.5740 
  2 C        1.5790     0.6710     0.4150 C.2   1 <1>   0.6870 
  3 N        1.4670     1.9840     0.8470 N.am  1 <1>  -0.4250 
  4 N        2.8320     0.0890     0.2660 N.am  1 <1>  -0.4410 
  5 C        2.5840     2.7290     1.1870 C.2   1 <1>   0.7000 
  6 C        0.2390     2.7430     0.4490 C.3   1 <1>   0.1950 
  7 C        3.9430     0.8760     0.4940 C.2   1 <1>   0.4210 
  8 C        2.9620    -1.3180    -0.2170 C.3   1 <1>   0.0530 
  9 O        2.4540     3.8400     1.6750 O.2   1 <1>  -0.5740 
 10 C        3.8670     2.1530     0.9460 C.2   1 <1>   0.2710 
 11 C        0.4040     3.3120    -0.9600 C.2   1 <1>   0.4430 
 12 N        5.2540     0.5380     0.3130 N.pl3 1 <1>  -0.7030 
 13 N        5.1900     2.6120     1.0520 N.pl3 1 <1>  -0.6330 
 14 O        1.4430     3.2430    -1.5520 O.2   1 <1>  -0.5740 
 15 C       -0.8070     3.9750    -1.5780 C.3   1 <1>  -0.1860 
 16 C        5.9670     1.6160     0.6540 C.cat 1 <1>   1.0690 
 17 C        6.0220     3.6700     1.3520 C.2   1 <1>   0.2350 
 18 N        7.2630     1.9430     0.6840 N.pl3 1 <1>  -0.5550 
 19 C        7.2930     3.2590     1.1280 C.2   1 <1>   0.1580 
 20 C        5.4510     4.9910     1.8300 C.3   1 <1>  -0.1090 
 21 C        8.3380     1.1180     0.3210 C.ar  1 <1>   0.3050 
 22 C        8.6120     3.9970     1.2850 C.3   1 <1>  -0.1090 
 23 C        8.9940     0.3600     1.2800 C.ar  1 <1>  -0.1570 
 24 C        8.7440     1.0410    -1.0040 C.ar  1 <1>  -0.1570 
 25 C       10.0390    -0.4750     0.9230 C.ar  1 <1>  -0.1570 
 26 C        9.7860     0.2070    -1.3640 C.ar  1 <1>  -0.1570 
 27 C       10.4380    -0.5560    -0.4090 C.ar  1 <1>   0.0750 
 28 O       11.4450    -1.3470    -0.8500 O.3   1 <1>  -0.3680 
 29 C       12.2200    -2.1170     0.0400 C.3   1 <1>   0.1130 
 30 C       13.2790    -2.8550    -0.7720 C.3   1 <1>  -0.2460 
 31 H        0.0650     3.5490     1.1400 H     1 <1>   0.0730 
 32 H       -0.6220     2.0990     0.4760 H     1 <1>   0.0730 
 33 H        2.0840    -1.8860     0.0400 H     1 <1>   0.0730 
 34 H        3.8120    -1.7950     0.2350 H     1 <1>   0.0730 
 35 H        3.0720    -1.3240    -1.2880 H     1 <1>   0.0730 
 36 H        5.6450    -0.3310    -0.0440 H     1 <1>   0.4450 
 37 H       -1.6110     3.2670    -1.6640 H     1 <1>   0.0730 
 38 H       -0.5610     4.3380    -2.5600 H     1 <1>   0.0730 
 39 H       -1.1240     4.8040    -0.9730 H     1 <1>   0.0730 
 40 H        4.7860     5.3940     1.0870 H     1 <1>   0.0730 
 41 H        6.2320     5.7050     2.0140 H     1 <1>   0.0730 
 42 H        4.8980     4.8440     2.7410 H     1 <1>   0.0730 
 43 H        9.2380     3.4890     1.9960 H     1 <1>   0.0730 
 44 H        8.4520     5.0020     1.6300 H     1 <1>   0.0730 
 45 H        9.1260     4.0390     0.3410 H     1 <1>   0.0730 
 46 H        8.6930     0.4220     2.3100 H     1 <1>   0.1430 
 47 H        8.2530     1.6330    -1.7560 H     1 <1>   0.1430 
 48 H       10.5310    -1.0520     1.6850 H     1 <1>   0.1430 
 49 H       10.1100     0.1410    -2.3890 H     1 <1>   0.1430 
 50 H       11.5730    -2.8150     0.5420 H     1 <1>   0.0730 
 51 H       12.6820    -1.4550     0.7530 H     1 <1>   0.0730 
 52 H       12.8100    -3.5020    -1.4910 H     1 <1>   0.0730 
 53 H       13.8870    -3.4530    -0.1180 H     1 <1>   0.0730 
 54 H       13.9120    -2.1500    -1.2810 H     1 <1>   0.0730 
@<TRIPOS>BOND
  1   1   2  2   
  2   2   3  am  
  3   2   4  am  
  4   3   5  am  
  5   3   6  1   
  6   4   7  1   
  7   4   8  1   
  8   5   9  2   
  9   5  10  1   
 10   6  11  1   
 11   6  31  1   
 12   6  32  1   
 13   7  10  2   
 14   7  12  1   
 15   8  33  1   
 16   8  34  1   
 17   8  35  1   
 18  10  13  1   
 19  11  14  2   
 20  11  15  1   
 21  12  16  ar  
 22  12  36  1   
 23  13  16  ar  
 24  13  17  1   
 25  15  37  1   
 26  15  38  1   
 27  15  39  1   
 28  16  18  ar  
 29  17  19  2   
 30  17  20  1   
 31  18  19  1   
 32  18  21  1   
 33  19  22  1   
 34  20  40  1   
 35  20  41  1   
 36  20  42  1   
 37  21  23  ar  
 38  21  24  ar  
 39  22  43  1   
 40  22  44  1   
 41  22  45  1   
 42  23  25  ar  
 43  23  46  1   
 44  24  26  ar  
 45  24  47  1   
 46  25  27  ar  
 47  25  48  1   
 48  26  27  ar  
 49  26  49  1   
 50  27  28  1   
 51  28  29  1   
 52  29  30  1   
 53  29  50  1   
 54  29  51  1   
 55  30  52  1   
 56  30  53  1   
 57  30  54  1   
@<TRIPOS>SUBSTRUCTURE
  1 ****  16 GROUP 4 **** **** 0

# MOE 2024.06 (io_trps.svl 2023.06)
