@<TRIPOS>MOLECULE
2-Chloro-N-(5-methoxy-2-methyl-phenyl)-acetamide
26 26 1 0 0 
SMALL
USER_CHARGES


@<TRIPOS>ATOM
  1 CL       0.2630     3.4210    -1.9550 Cl    1 <1>  -0.2900 
  2 C        0.0170     2.2350    -0.6750 C.3   1 <1>   0.1910 
  3 C       -0.0560     2.9220     0.6820 C.2   1 <1>   0.5690 
  4 O        0.9050     2.9010     1.4090 O.2   1 <1>  -0.5700 
  5 N       -1.1940     3.5450     1.0920 N.am  1 <1>  -0.5470 
  6 C       -2.4180     3.6490     0.4260 C.ar  1 <1>   0.1170 
  7 C       -2.7850     4.8260    -0.2270 C.ar  1 <1>  -0.1430 
  8 C       -3.2810     2.5620     0.4210 C.ar  1 <1>  -0.1500 
  9 C       -4.0030     4.8900    -0.8840 C.ar  1 <1>  -0.1500 
 10 C       -1.8650     6.0400    -0.2380 C.3   1 <1>  -0.0970 
 11 C       -4.5020     2.6320    -0.2380 C.ar  1 <1>   0.0830 
 12 C       -4.8550     3.8000    -0.8910 C.ar  1 <1>  -0.1500 
 13 O       -5.3960     1.6120    -0.2870 O.3   1 <1>  -0.3630 
 14 C       -5.1750     0.4080     0.4130 C.3   1 <1>   0.0400 
 15 H        0.8490     1.5570    -0.7020 H     1 <1>   0.0800 
 16 H       -0.8920     1.7070    -0.8910 H     1 <1>   0.0800 
 17 H       -1.0940     4.0580     1.9690 H     1 <1>   0.3700 
 18 H       -2.9830     1.6730     0.9400 H     1 <1>   0.1500 
 19 H       -4.2990     5.7890    -1.3970 H     1 <1>   0.1500 
 20 H       -0.9170     5.7820    -0.6770 H     1 <1>   0.0800 
 21 H       -1.6990     6.3870     0.7660 H     1 <1>   0.0800 
 22 H       -2.2920     6.8440    -0.8090 H     1 <1>   0.0800 
 23 H       -5.7990     3.8500    -1.4020 H     1 <1>   0.1500 
 24 H       -6.0250    -0.2310     0.2540 H     1 <1>   0.0800 
 25 H       -5.0740     0.6270     1.4620 H     1 <1>   0.0800 
 26 H       -4.2880    -0.0630     0.0290 H     1 <1>   0.0800 
@<TRIPOS>BOND
  1   1   2  1   
  2   2   3  1   
  3   2  15  1   
  4   2  16  1   
  5   3   4  2   
  6   3   5  am  
  7   5   6  1   
  8   5  17  1   
  9   6   7  ar  
 10   6   8  ar  
 11   7   9  ar  
 12   7  10  1   
 13   8  11  ar  
 14   8  18  1   
 15   9  12  ar  
 16   9  19  1   
 17  10  20  1   
 18  10  21  1   
 19  10  22  1   
 20  11  12  ar  
 21  11  13  1   
 22  12  23  1   
 23  13  14  1   
 24  14  24  1   
 25  14  25  1   
 26  14  26  1   
@<TRIPOS>SUBSTRUCTURE
  1 ****   6 GROUP 4 **** **** 0

# MOE 2024.06 (io_trps.svl 2023.06)
