@<TRIPOS>MOLECULE
2-(4-Methyl-piperazin-1-yl)-propylamine
32 32 1 0 0 
SMALL
USER_CHARGES


@<TRIPOS>ATOM
  1 N       -0.0050     0.0470     0.1120 N.3   1 <1>  -0.8100 
  2 C        1.0620     1.0090    -0.2950 C.3   1 <1>   0.1900 
  3 C        0.2120    -1.3110    -0.4650 C.3   1 <1>   0.1100 
  4 C       -1.4060     0.4880    -0.1610 C.3   1 <1>   0.1100 
  5 C        2.3720     0.6670     0.4690 C.3   1 <1>   0.3430 
  6 C        0.6570     2.4700    -0.0140 C.3   1 <1>  -0.2400 
  7 C       -0.8340    -2.3440     0.0160 C.3   1 <1>   0.3430 
  8 C       -2.4660    -0.5310     0.3120 C.3   1 <1>   0.3430 
  9 N        3.5110     1.5910     0.1710 N.4   1 <1>  -0.8530 
 10 N       -2.2350    -1.8930    -0.2720 N.4   1 <1>  -0.9590 
 11 C       -3.2380    -2.8760     0.2430 C.3   1 <1>   0.2630 
 12 H        1.2330     0.9040    -1.3550 H     1 <1>   0.0800 
 13 H        1.1820    -1.6800    -0.1830 H     1 <1>   0.0800 
 14 H        0.1820    -1.2600    -1.5410 H     1 <1>   0.0800 
 15 H       -1.5350     0.6770    -1.2140 H     1 <1>   0.0800 
 16 H       -1.6120     1.4030     0.3670 H     1 <1>   0.0800 
 17 H        2.6640    -0.3390     0.2220 H     1 <1>   0.0800 
 18 H        2.1570     0.7010     1.5250 H     1 <1>   0.0800 
 19 H        0.3980     2.6020     1.0230 H     1 <1>   0.0800 
 20 H       -0.1740     2.7650    -0.6290 H     1 <1>   0.0800 
 21 H        1.4490     3.1530    -0.2550 H     1 <1>   0.0800 
 22 H       -0.7110    -2.4880     1.0770 H     1 <1>   0.0800 
 23 H       -0.6490    -3.2890    -0.4690 H     1 <1>   0.0800 
 24 H       -3.4460    -0.1750     0.0350 H     1 <1>   0.0800 
 25 H       -2.4280    -0.5860     1.3880 H     1 <1>   0.0800 
 26 H        3.7550     1.5910    -0.8260 H     1 <1>   0.4500 
 27 H        4.3490     1.3210     0.7000 H     1 <1>   0.4500 
 28 H        3.2760     2.5530     0.4420 H     1 <1>   0.4500 
 29 H       -2.3420    -1.8180    -1.2930 H     1 <1>   0.4500 
 30 H       -3.1540    -2.9730     1.3130 H     1 <1>   0.0800 
 31 H       -3.0790    -3.8440    -0.2050 H     1 <1>   0.0800 
 32 H       -4.2380    -2.5500     0.0050 H     1 <1>   0.0800 
@<TRIPOS>BOND
  1   1   2  1   
  2   1   3  1   
  3   1   4  1   
  4   2   5  1   
  5   2   6  1   
  6   2  12  1   
  7   3   7  1   
  8   3  13  1   
  9   3  14  1   
 10   4   8  1   
 11   4  15  1   
 12   4  16  1   
 13   5   9  1   
 14   5  17  1   
 15   5  18  1   
 16   6  19  1   
 17   6  20  1   
 18   6  21  1   
 19   7  10  1   
 20   7  22  1   
 21   7  23  1   
 22   8  10  1   
 23   8  24  1   
 24   8  25  1   
 25   9  26  1   
 26   9  27  1   
 27   9  28  1   
 28  10  11  1   
 29  10  29  1   
 30  11  30  1   
 31  11  31  1   
 32  11  32  1   
@<TRIPOS>SUBSTRUCTURE
  1 ****   1 GROUP 4 **** **** 0

# MOE 2024.06 (io_trps.svl 2023.06)
