@<TRIPOS>MOLECULE
2-(4-Ethyl-5-mercapto-4H-[1,2,4]triazol-3-yl)-N-p-tolyl-acetamide
35 36 1 0 0 
SMALL
USER_CHARGES


@<TRIPOS>ATOM
  1 S       -0.7220     0.2730    -0.0050 S.3   1 <1>  -0.9360 
  2 C       -1.3160     1.7210    -0.4330 C.cat 1 <1>   0.7360 
  3 N       -0.7240     2.5550    -1.2570 N.pl3 1 <1>  -0.3930 
  4 N       -2.4420     2.2700    -0.0130 N.pl3 1 <1>  -0.7640 
  5 N       -1.4540     3.7000    -1.3890 N.2   1 <1>  -0.2600 
  6 C       -2.4760     3.5010    -0.6330 C.2   1 <1>   0.4850 
  7 C       -3.3950     1.5670     0.8680 C.3   1 <1>   0.3540 
  8 C       -3.5540     4.5380    -0.4040 C.3   1 <1>   0.0690 
  9 C       -4.2940     0.6630     0.0290 C.3   1 <1>  -0.2400 
 10 C       -4.8930     4.0240    -0.8660 C.2   1 <1>   0.5690 
 11 O       -5.0210     3.7540    -2.0320 O.2   1 <1>  -0.5700 
 12 N       -5.8990     3.9060     0.0600 N.am  1 <1>  -0.5470 
 13 C       -7.1760     3.3310    -0.0370 C.ar  1 <1>   0.1170 
 14 C       -7.5540     2.4670    -1.0610 C.ar  1 <1>  -0.1500 
 15 C       -8.1080     3.6190     0.9540 C.ar  1 <1>  -0.1500 
 16 C       -8.8200     1.9110    -1.0910 C.ar  1 <1>  -0.1500 
 17 C       -9.3740     3.0640     0.9260 C.ar  1 <1>  -0.1500 
 18 C       -9.7380     2.2040    -0.0970 C.ar  1 <1>  -0.1440 
 19 C      -11.1280     1.5950    -0.1330 C.3   1 <1>  -0.0970 
 20 H        0.1600     2.3130    -1.7030 H     1 <1>   0.4500 
 21 H       -3.9890     2.2800     1.4100 H     1 <1>   0.0800 
 22 H       -2.8530     0.9710     1.5840 H     1 <1>   0.0800 
 23 H       -3.3200     5.4230    -0.9640 H     1 <1>   0.0800 
 24 H       -3.5790     4.7920     0.6370 H     1 <1>   0.0800 
 25 H       -4.8010     1.2210    -0.7350 H     1 <1>   0.0800 
 26 H       -5.0280     0.1950     0.6580 H     1 <1>   0.0800 
 27 H       -3.7040    -0.1090    -0.4330 H     1 <1>   0.0800 
 28 H       -5.7250     4.3390     0.9640 H     1 <1>   0.3700 
 29 H       -6.8650     2.2180    -1.8470 H     1 <1>   0.1500 
 30 H       -7.8510     4.2850     1.7560 H     1 <1>   0.1500 
 31 H       -9.0860     1.2490    -1.8960 H     1 <1>   0.1500 
 32 H      -10.0800     3.3040     1.7020 H     1 <1>   0.1500 
 33 H      -11.1000     0.6230    -0.5940 H     1 <1>   0.0800 
 34 H      -11.7870     2.2280    -0.6990 H     1 <1>   0.0800 
 35 H      -11.5190     1.4860     0.8620 H     1 <1>   0.0800 
@<TRIPOS>BOND
  1   1   2  1   
  2   2   3  ar  
  3   2   4  ar  
  4   3   5  1   
  5   3  20  1   
  6   4   6  1   
  7   4   7  1   
  8   5   6  2   
  9   6   8  1   
 10   7   9  1   
 11   7  21  1   
 12   7  22  1   
 13   8  10  1   
 14   8  23  1   
 15   8  24  1   
 16   9  25  1   
 17   9  26  1   
 18   9  27  1   
 19  10  11  2   
 20  10  12  am  
 21  12  13  1   
 22  12  28  1   
 23  13  14  ar  
 24  13  15  ar  
 25  14  16  ar  
 26  14  29  1   
 27  15  17  ar  
 28  15  30  1   
 29  16  18  ar  
 30  16  31  1   
 31  17  18  ar  
 32  17  32  1   
 33  18  19  1   
 34  19  33  1   
 35  19  34  1   
 36  19  35  1   
@<TRIPOS>SUBSTRUCTURE
  1 ****  10 GROUP 4 **** **** 0

# MOE 2024.06 (io_trps.svl 2023.06)
