@<TRIPOS>MOLECULE
N-[2-(4-Acetyl-piperazin-1-yl)-phenyl]-2-(4-chloro-phenyl)-acetamide
48 50 1 0 0 
SMALL
USER_CHARGES


@<TRIPOS>ATOM
  1 CL       5.4900     5.2040    -0.8040 Cl    1 <1>  -0.1770 
  2 C        5.5260     3.4680    -0.6380 C.ar  1 <1>   0.1770 
  3 C        5.5070     2.9060     0.6240 C.ar  1 <1>  -0.1500 
  4 C        5.5930     2.6810    -1.7720 C.ar  1 <1>  -0.1500 
  5 C        5.5560     1.5280     0.7530 C.ar  1 <1>  -0.1500 
  6 C        5.6440     1.3040    -1.6370 C.ar  1 <1>  -0.1500 
  7 C        5.6240     0.7220    -0.3760 C.ar  1 <1>  -0.1430 
  8 C        5.6720    -0.7990    -0.2430 C.3   1 <1>   0.0450 
  9 C        7.0430    -1.4020    -0.5030 C.2   1 <1>   0.5690 
 10 O        7.0910    -2.5640    -0.8270 O.2   1 <1>  -0.5700 
 11 N        8.1460    -0.6160    -0.3440 N.am  1 <1>  -0.5470 
 12 C        9.5310    -0.8410    -0.4400 C.ar  1 <1>   0.1170 
 13 C       10.3660     0.2380    -0.1140 C.ar  1 <1>   0.1000 
 14 C       10.0960    -2.0460    -0.8330 C.ar  1 <1>  -0.1500 
 15 N        9.8050     1.4620     0.2860 N.pl3 1 <1>  -0.8380 
 16 C       11.7440     0.0770    -0.1860 C.ar  1 <1>  -0.1500 
 17 C       11.4710    -2.1910    -0.9030 C.ar  1 <1>  -0.1500 
 18 C       10.0940     2.6490    -0.5660 C.3   1 <1>   0.2090 
 19 C        9.9120     1.7950     1.7340 C.3   1 <1>   0.2090 
 20 C       12.2960    -1.1290    -0.5790 C.ar  1 <1>  -0.1500 
 21 C        9.1020     3.7840    -0.2600 C.3   1 <1>   0.1400 
 22 C        8.9140     2.9030     2.1040 C.3   1 <1>   0.1400 
 23 N        9.0290     4.1030     1.2070 N.am  1 <1>  -0.6600 
 24 C        8.9390     5.3660     1.7280 C.2   1 <1>   0.5690 
 25 O        8.8490     5.5640     2.9150 O.2   1 <1>  -0.5700 
 26 C        8.9390     6.5760     0.8230 C.3   1 <1>  -0.1790 
 27 H        5.4590     3.5430     1.4910 H     1 <1>   0.1500 
 28 H        5.6050     3.1410    -2.7430 H     1 <1>   0.1500 
 29 H        5.5380     1.0900     1.7360 H     1 <1>   0.1500 
 30 H        5.6980     0.6860    -2.5180 H     1 <1>   0.1500 
 31 H        4.9770    -1.2330    -0.9380 H     1 <1>   0.0800 
 32 H        5.3630    -1.0940     0.7420 H     1 <1>   0.0800 
 33 H        7.9740     0.3640    -0.0950 H     1 <1>   0.3700 
 34 H        9.4690    -2.8810    -1.0890 H     1 <1>   0.1500 
 35 H       12.3850     0.8990     0.0690 H     1 <1>   0.1500 
 36 H       11.8950    -3.1320    -1.2100 H     1 <1>   0.1500 
 37 H       10.0160     2.3720    -1.6030 H     1 <1>   0.0800 
 38 H       11.0980     2.9920    -0.3830 H     1 <1>   0.0800 
 39 H       10.9120     2.1240     1.9600 H     1 <1>   0.0800 
 40 H        9.7070     0.9160     2.3210 H     1 <1>   0.0800 
 41 H       13.3650    -1.2420    -0.6320 H     1 <1>   0.1500 
 42 H        8.1320     3.4770    -0.5970 H     1 <1>   0.0800 
 43 H        9.3890     4.6500    -0.8260 H     1 <1>   0.0800 
 44 H        9.0780     3.1850     3.1290 H     1 <1>   0.0800 
 45 H        7.9180     2.5090     2.0300 H     1 <1>   0.0800 
 46 H        9.8830     6.6540     0.3180 H     1 <1>   0.0800 
 47 H        8.7870     7.4640     1.4070 H     1 <1>   0.0800 
 48 H        8.1430     6.4980     0.1060 H     1 <1>   0.0800 
@<TRIPOS>BOND
  1   1   2  1   
  2   2   3  ar  
  3   2   4  ar  
  4   3   5  ar  
  5   3  27  1   
  6   4   6  ar  
  7   4  28  1   
  8   5   7  ar  
  9   5  29  1   
 10   6   7  ar  
 11   6  30  1   
 12   7   8  1   
 13   8   9  1   
 14   8  31  1   
 15   8  32  1   
 16   9  10  2   
 17   9  11  am  
 18  11  12  1   
 19  11  33  1   
 20  12  13  ar  
 21  12  14  ar  
 22  13  15  1   
 23  13  16  ar  
 24  14  17  ar  
 25  14  34  1   
 26  15  18  1   
 27  15  19  1   
 28  16  20  ar  
 29  16  35  1   
 30  17  20  ar  
 31  17  36  1   
 32  18  21  1   
 33  18  37  1   
 34  18  38  1   
 35  19  22  1   
 36  19  39  1   
 37  19  40  1   
 38  20  41  1   
 39  21  23  1   
 40  21  42  1   
 41  21  43  1   
 42  22  23  1   
 43  22  44  1   
 44  22  45  1   
 45  23  24  am  
 46  24  25  2   
 47  24  26  1   
 48  26  46  1   
 49  26  47  1   
 50  26  48  1   
@<TRIPOS>SUBSTRUCTURE
  1 ****  15 GROUP 4 **** **** 0

# MOE 2024.06 (io_trps.svl 2023.06)
