@<TRIPOS>MOLECULE
3-(5-Hydroxy-3-phenyl-5-trifluoromethyl-4,5-dihydro-pyrazol-1-yl)-3-oxo-propioni
31 32 1 0 0 
SMALL
USER_CHARGES


@<TRIPOS>ATOM
  1 F       -0.0100    -0.8690     0.6250 F     1 <1>  -0.3400 
  2 C       -0.6020     0.3130     0.4900 C.3   1 <1>   1.0200 
  3 F        0.3380     1.1300     0.0190 F     1 <1>  -0.3400 
  4 F       -0.8490     0.7370     1.7290 F     1 <1>  -0.3400 
  5 C       -1.9030     0.3000    -0.4190 C.3   1 <1>   0.5800 
  6 O       -1.7150    -0.2840    -1.6770 O.3   1 <1>  -0.6800 
  7 N       -3.0710    -0.3910     0.1940 N.am  1 <1>  -0.2980 
  8 C       -2.4630     1.7110    -0.6440 C.3   1 <1>  -0.0990 
  9 N       -4.1030     0.4770     0.4450 N.2   1 <1>  -0.5120 
 10 C       -3.1210    -1.7610     0.3580 C.2   1 <1>   0.5690 
 11 C       -3.8330     1.6390    -0.0020 C.2   1 <1>   0.3030 
 12 O       -2.2300    -2.4810    -0.0270 O.2   1 <1>  -0.5700 
 13 C       -4.3210    -2.3890     1.0290 C.3   1 <1>   0.1010 
 14 C       -4.6910     2.8040     0.0630 C.ar  1 <1>   0.0860 
 15 C       -5.4020    -2.5810     0.0330 C.1   1 <1>   0.3570 
 16 C       -4.3160     4.0530    -0.4460 C.ar  1 <1>  -0.1500 
 17 C       -5.9560     2.7190     0.6500 C.ar  1 <1>  -0.1500 
 18 N       -6.2440    -2.7480    -0.7130 N.1   1 <1>  -0.5570 
 19 C       -5.1540     5.1500    -0.3670 C.ar  1 <1>  -0.1500 
 20 C       -6.7990     3.8110     0.7320 C.ar  1 <1>  -0.1500 
 21 C       -6.3980     5.0330     0.2240 C.ar  1 <1>  -0.1500 
 22 H       -1.6460    -1.2580    -1.5440 H     1 <1>   0.4000 
 23 H       -2.5460     1.9430    -1.6910 H     1 <1>   0.0800 
 24 H       -1.8700     2.4600    -0.1530 H     1 <1>   0.0800 
 25 H       -4.6740    -1.7640     1.8260 H     1 <1>   0.0800 
 26 H       -4.0460    -3.3430     1.4350 H     1 <1>   0.0800 
 27 H       -3.3590     4.1860    -0.9160 H     1 <1>   0.1500 
 28 H       -6.2880     1.7760     1.0490 H     1 <1>   0.1500 
 29 H       -4.8410     6.1010    -0.7660 H     1 <1>   0.1500 
 30 H       -7.7680     3.7120     1.1910 H     1 <1>   0.1500 
 31 H       -7.0530     5.8860     0.2860 H     1 <1>   0.1500 
@<TRIPOS>BOND
  1   1   2  1   
  2   2   3  1   
  3   2   4  1   
  4   2   5  1   
  5   5   6  1   
  6   5   7  1   
  7   5   8  1   
  8   6  22  1   
  9   7   9  1   
 10   7  10  am  
 11   8  11  1   
 12   8  23  1   
 13   8  24  1   
 14   9  11  2   
 15  10  12  2   
 16  10  13  1   
 17  11  14  1   
 18  13  15  1   
 19  13  25  1   
 20  13  26  1   
 21  14  16  ar  
 22  14  17  ar  
 23  15  18  3   
 24  16  19  ar  
 25  16  27  1   
 26  17  20  ar  
 27  17  28  1   
 28  19  21  ar  
 29  19  29  1   
 30  20  21  ar  
 31  20  30  1   
 32  21  31  1   
@<TRIPOS>SUBSTRUCTURE
  1 ****   9 GROUP 4 **** **** 0

# MOE 2024.06 (io_trps.svl 2023.06)
