@<TRIPOS>MOLECULE
5-Oxo-1-pyridin-2-ylmethyl-pyrrolidine-3-carboxylic acid
27 28 1 0 0 
SMALL
USER_CHARGES


@<TRIPOS>ATOM
  1 O        0.7990     0.4280     2.0670 O.2   1 <1>  -0.5700 
  2 C        1.5680     0.4520     1.1340 C.2   1 <1>   0.5690 
  3 N        1.9920    -0.6260     0.4450 N.am  1 <1>  -0.6600 
  4 C        2.1640     1.7110     0.5720 C.3   1 <1>  -0.0990 
  5 C        2.9020    -0.2720    -0.6620 C.3   1 <1>   0.1400 
  6 C        1.6540    -2.0400     0.7480 C.3   1 <1>   0.2840 
  7 C        2.7510     1.2500    -0.7810 C.3   1 <1>  -0.1860 
  8 C        0.6610    -2.6290    -0.2510 C.ar  1 <1>   0.1660 
  9 C        4.0480     1.9260    -1.1770 C.2   1 <1>   0.9060 
 10 N        0.9380    -3.8360    -0.7330 N.ar  1 <1>  -0.6200 
 11 C       -0.4730    -1.9060    -0.5970 C.ar  1 <1>  -0.1500 
 12 O        4.2450     3.0920    -0.8230 O.co2 1 <1>  -0.9000 
 13 O        4.8600     1.2940    -1.8590 O.co2 1 <1>  -0.9000 
 14 C        0.0600    -4.3280    -1.5920 C.ar  1 <1>   0.1600 
 15 C       -1.3790    -2.4320    -1.4920 C.ar  1 <1>  -0.1500 
 16 C       -1.0940    -3.6810    -1.9990 C.ar  1 <1>  -0.1500 
 17 H        2.9390     2.0560     1.2320 H     1 <1>   0.0800 
 18 H        1.4250     2.4790     0.4430 H     1 <1>   0.0800 
 19 H        2.6230    -0.7640    -1.5780 H     1 <1>   0.0800 
 20 H        3.9120    -0.5410    -0.3980 H     1 <1>   0.0800 
 21 H        1.2300    -2.1020     1.7340 H     1 <1>   0.0800 
 22 H        2.5590    -2.6210     0.7390 H     1 <1>   0.0800 
 23 H        2.0410     1.4550    -1.5580 H     1 <1>   0.0800 
 24 H       -0.6410    -0.9350    -0.1640 H     1 <1>   0.1500 
 25 H        0.2720    -5.3040    -1.9950 H     1 <1>   0.1500 
 26 H       -2.2640    -1.8910    -1.7780 H     1 <1>   0.1500 
 27 H       -1.7570    -4.1500    -2.7020 H     1 <1>   0.1500 
@<TRIPOS>BOND
  1   1   2  2   
  2   2   3  am  
  3   2   4  1   
  4   3   5  1   
  5   3   6  1   
  6   4   7  1   
  7   4  17  1   
  8   4  18  1   
  9   5   7  1   
 10   5  19  1   
 11   5  20  1   
 12   6   8  1   
 13   6  21  1   
 14   6  22  1   
 15   7   9  1   
 16   7  23  1   
 17   8  10  ar  
 18   8  11  ar  
 19   9  12  ar  
 20   9  13  ar  
 21  10  14  ar  
 22  11  15  ar  
 23  11  24  1   
 24  14  16  ar  
 25  14  25  1   
 26  15  16  ar  
 27  15  26  1   
 28  16  27  1   
@<TRIPOS>SUBSTRUCTURE
  1 ****   3 GROUP 4 **** **** 0

# MOE 2024.06 (io_trps.svl 2023.06)
