@<TRIPOS>MOLECULE
1-Isopropyl-4-(5-methyl-thiophen-2-yl)-1,4-dihydro-pyridine-3,5-dicarboxylic aci
44 45 1 0 0 
SMALL
USER_CHARGES


@<TRIPOS>ATOM
  1 S        1.0690     0.4110    -0.7290 S.3   1 <1>  -0.0800 
  2 C        1.2370    -1.1940    -0.0360 C.2   1 <1>  -0.1400 
  3 C        1.3430     1.1650     0.8320 C.2   1 <1>  -0.1400 
  4 C        1.4820    -1.1100     1.2860 C.2   1 <1>  -0.1500 
  5 C        1.0930    -2.3970    -0.9610 C.3   1 <1>   0.3760 
  6 C        1.5420     0.2310     1.7800 C.2   1 <1>  -0.1500 
  7 C        1.3150     2.6780     0.8790 C.3   1 <1>  -0.0600 
  8 C       -0.0690    -3.2490    -0.4470 C.2   1 <1>  -0.1240 
  9 C        2.4220    -3.1530    -0.9630 C.2   1 <1>  -0.1240 
 10 C       -1.3720    -2.7100    -0.6670 C.2   1 <1>   0.7060 
 11 C        0.1880    -4.4210     0.1850 C.2   1 <1>  -0.0500 
 12 C        3.4870    -2.5230    -1.6760 C.2   1 <1>   0.7060 
 13 C        2.5260    -4.3310    -0.3000 C.2   1 <1>  -0.0500 
 14 O       -1.6040    -1.7640    -1.3960 O.2   1 <1>  -0.5700 
 15 O       -2.4010    -3.3030    -0.0470 O.3   1 <1>  -0.4300 
 16 N        1.4630    -4.9410     0.3430 N.pl3 1 <1>  -0.5690 
 17 O        3.3390    -1.5790    -2.4290 O.2   1 <1>  -0.5700 
 18 O        4.7200    -3.0250    -1.5200 O.3   1 <1>  -0.4300 
 19 C       -3.7260    -2.8350    -0.2020 C.3   1 <1>   0.0400 
 20 C        1.7000    -6.1960     1.1080 C.3   1 <1>   0.2890 
 21 C        5.8360    -2.4620    -2.1820 C.3   1 <1>   0.0400 
 22 C        1.0210    -7.3720     0.4070 C.3   1 <1>  -0.2400 
 23 C        1.2110    -6.0340     2.5480 C.3   1 <1>  -0.2400 
 24 H        1.6240    -1.9510     1.9430 H     1 <1>   0.1500 
 25 H        0.8720    -2.0710    -1.9630 H     1 <1>   0.0800 
 26 H        1.7310     0.4250     2.8200 H     1 <1>   0.1500 
 27 H        0.3560     3.0350     0.5530 H     1 <1>   0.0800 
 28 H        2.0750     3.0760     0.2320 H     1 <1>   0.0800 
 29 H        1.4940     3.0210     1.8820 H     1 <1>   0.0800 
 30 H       -0.6210    -5.0100     0.5850 H     1 <1>   0.1500 
 31 H        3.4690    -4.8530    -0.2630 H     1 <1>   0.1500 
 32 H       -4.3780    -3.4530     0.3890 H     1 <1>   0.0800 
 33 H       -3.9980    -2.8950    -1.2420 H     1 <1>   0.0800 
 34 H       -3.7750    -1.8140     0.1360 H     1 <1>   0.0800 
 35 H        2.7590    -6.3870     1.1370 H     1 <1>   0.0800 
 36 H        6.7130    -3.0170    -1.9030 H     1 <1>   0.0800 
 37 H        5.9360    -1.4340    -1.8810 H     1 <1>   0.0800 
 38 H        5.6780    -2.5250    -3.2450 H     1 <1>   0.0800 
 39 H       -0.0470    -7.2560     0.4040 H     1 <1>   0.0800 
 40 H        1.2610    -8.2880     0.9140 H     1 <1>   0.0800 
 41 H        1.3710    -7.4430    -0.6070 H     1 <1>   0.0800 
 42 H        0.1460    -5.9040     2.5840 H     1 <1>   0.0800 
 43 H        1.6880    -5.1820     2.9990 H     1 <1>   0.0800 
 44 H        1.4660    -6.9070     3.1190 H     1 <1>   0.0800 
@<TRIPOS>BOND
  1   1   2  1   
  2   1   3  1   
  3   2   4  2   
  4   2   5  1   
  5   3   6  2   
  6   3   7  1   
  7   4   6  1   
  8   4  24  1   
  9   5   8  1   
 10   5   9  1   
 11   5  25  1   
 12   6  26  1   
 13   7  27  1   
 14   7  28  1   
 15   7  29  1   
 16   8  10  1   
 17   8  11  2   
 18   9  12  1   
 19   9  13  2   
 20  10  14  2   
 21  10  15  1   
 22  11  16  1   
 23  11  30  1   
 24  12  17  2   
 25  12  18  1   
 26  13  16  1   
 27  13  31  1   
 28  15  19  1   
 29  16  20  1   
 30  18  21  1   
 31  19  32  1   
 32  19  33  1   
 33  19  34  1   
 34  20  22  1   
 35  20  23  1   
 36  20  35  1   
 37  21  36  1   
 38  21  37  1   
 39  21  38  1   
 40  22  39  1   
 41  22  40  1   
 42  22  41  1   
 43  23  42  1   
 44  23  43  1   
 45  23  44  1   
@<TRIPOS>SUBSTRUCTURE
  1 ****   5 GROUP 4 **** **** 0

# MOE 2024.06 (io_trps.svl 2023.06)
