@<TRIPOS>MOLECULE
N-Butyl-4-[3-(4-chloro-phenyl)-[1,2,4]oxadiazol-5-yl]-butyramide
42 43 1 0 0 
SMALL
USER_CHARGES


@<TRIPOS>ATOM
  1 CL      -0.2240     1.0510     1.2370 Cl    1 <1>  -0.1770 
  2 C        1.3310     1.6450     0.7160 C.ar  1 <1>   0.1770 
  3 C        1.6390     2.9810     0.8780 C.ar  1 <1>  -0.1500 
  4 C        2.2370     0.7720     0.1470 C.ar  1 <1>  -0.1500 
  5 C        2.8740     3.4470     0.4620 C.ar  1 <1>  -0.1500 
  6 C        3.4690     1.2490    -0.2650 C.ar  1 <1>  -0.1500 
  7 C        3.8210     2.5960    -0.1190 C.ar  1 <1>   0.0540 
  8 C        5.1190     3.0840    -0.5540 C.2   1 <1>   0.4620 
  9 N        6.0580     2.3670    -1.0640 N.2   1 <1>  -0.4100 
 10 N        5.4760     4.3690    -0.4600 N.2   1 <1>  -0.5650 
 11 O        7.0580     3.1480    -1.3250 O.3   1 <1>  -0.0190 
 12 C        6.6500     4.3280    -0.9360 C.2   1 <1>   0.2980 
 13 C        7.5900     5.5120    -1.0830 C.3   1 <1>   0.0200 
 14 C        8.5450     5.6760     0.1130 C.3   1 <1>  -0.1600 
 15 C        9.4200     4.4320     0.3760 C.3   1 <1>  -0.0990 
 16 C       10.4680     4.6240     1.4650 C.2   1 <1>   0.5690 
 17 O       10.5950     5.6920     2.0060 O.2   1 <1>  -0.5700 
 18 N       11.2750     3.5990     1.8240 N.am  1 <1>  -0.7300 
 19 C       11.3120     2.2120     1.3140 C.3   1 <1>   0.1400 
 20 C       12.5340     2.0440     0.4130 C.3   1 <1>  -0.1600 
 21 C       12.6090     0.6230    -0.1600 C.3   1 <1>  -0.1600 
 22 C       13.8310     0.4600    -1.0680 C.3   1 <1>  -0.2400 
 23 H        0.9190     3.6450     1.3230 H     1 <1>   0.1500 
 24 H        1.9780    -0.2650     0.0290 H     1 <1>   0.1500 
 25 H        3.1100     4.4890     0.5910 H     1 <1>   0.1500 
 26 H        4.1730     0.5660    -0.7090 H     1 <1>   0.1500 
 27 H        6.9990     6.4050    -1.1770 H     1 <1>   0.0800 
 28 H        8.1550     5.3990    -1.9900 H     1 <1>   0.0800 
 29 H        7.9710     5.8920     0.9980 H     1 <1>   0.0800 
 30 H        9.1830     6.5240    -0.0730 H     1 <1>   0.0800 
 31 H        9.9300     4.1570    -0.5280 H     1 <1>   0.0800 
 32 H        8.7890     3.6160     0.6750 H     1 <1>   0.0800 
 33 H       11.9680     3.8300     2.5390 H     1 <1>   0.3700 
 34 H       10.4150     1.9880     0.7620 H     1 <1>   0.0800 
 35 H       11.3700     1.5320     2.1480 H     1 <1>   0.0800 
 36 H       13.4250     2.2470     0.9810 H     1 <1>   0.0800 
 37 H       12.4750     2.7500    -0.3970 H     1 <1>   0.0800 
 38 H       11.7180     0.4120    -0.7280 H     1 <1>   0.0800 
 39 H       12.6700    -0.0910     0.6440 H     1 <1>   0.0800 
 40 H       13.7830     1.1480    -1.8930 H     1 <1>   0.0800 
 41 H       13.8670    -0.5410    -1.4600 H     1 <1>   0.0800 
 42 H       14.7370     0.6430    -0.5170 H     1 <1>   0.0800 
@<TRIPOS>BOND
  1   1   2  1   
  2   2   3  ar  
  3   2   4  ar  
  4   3   5  ar  
  5   3  23  1   
  6   4   6  ar  
  7   4  24  1   
  8   5   7  ar  
  9   5  25  1   
 10   6   7  ar  
 11   6  26  1   
 12   7   8  1   
 13   8   9  2   
 14   8  10  1   
 15   9  11  1   
 16  10  12  2   
 17  11  12  1   
 18  12  13  1   
 19  13  14  1   
 20  13  27  1   
 21  13  28  1   
 22  14  15  1   
 23  14  29  1   
 24  14  30  1   
 25  15  16  1   
 26  15  31  1   
 27  15  32  1   
 28  16  17  2   
 29  16  18  am  
 30  18  19  1   
 31  18  33  1   
 32  19  20  1   
 33  19  34  1   
 34  19  35  1   
 35  20  21  1   
 36  20  36  1   
 37  20  37  1   
 38  21  22  1   
 39  21  38  1   
 40  21  39  1   
 41  22  40  1   
 42  22  41  1   
 43  22  42  1   
@<TRIPOS>SUBSTRUCTURE
  1 ****  11 GROUP 4 **** **** 0

# MOE 2024.06 (io_trps.svl 2023.06)
