@<TRIPOS>MOLECULE
N-Isobutyl-4-(3-phenyl-[1,2,4]oxadiazol-5-yl)-butyramide
42 43 1 0 0 
SMALL
USER_CHARGES


@<TRIPOS>ATOM
  1 O       -1.0640    -1.0280    -1.9320 O.2   1 <1>  -0.5700 
  2 C       -1.2480    -2.0450    -1.3120 C.2   1 <1>   0.5690 
  3 N       -0.4610    -3.1180    -1.5540 N.am  1 <1>  -0.7300 
  4 C       -2.3440    -2.1130    -0.2570 C.3   1 <1>  -0.0990 
  5 C       -0.4640    -4.4540    -0.9110 C.3   1 <1>   0.1400 
  6 C       -3.2550    -0.8690    -0.2070 C.3   1 <1>  -0.1600 
  7 C        0.8300    -4.6750    -0.1110 C.3   1 <1>  -0.0800 
  8 C       -4.2660    -0.8970     0.9530 C.3   1 <1>   0.0200 
  9 C        0.8670    -6.1050     0.4440 C.3   1 <1>  -0.2400 
 10 C        0.9740    -3.6740     1.0450 C.3   1 <1>  -0.2400 
 11 C       -5.1670    -2.1190     0.9290 C.2   1 <1>   0.2980 
 12 O       -4.7520    -3.2180     1.5020 O.3   1 <1>  -0.0190 
 13 N       -6.3140    -2.1840     0.3930 N.2   1 <1>  -0.5650 
 14 N       -5.7150    -4.0610     1.3040 N.2   1 <1>  -0.4100 
 15 C       -6.6430    -3.4550     0.6500 C.2   1 <1>   0.4620 
 16 C       -7.9020    -4.0430     0.2230 C.ar  1 <1>   0.0540 
 17 C       -8.8440    -3.3140    -0.5080 C.ar  1 <1>  -0.1500 
 18 C       -8.2210    -5.3690     0.5260 C.ar  1 <1>  -0.1500 
 19 C      -10.0400    -3.8770    -0.9140 C.ar  1 <1>  -0.1500 
 20 C       -9.4150    -5.9380     0.1220 C.ar  1 <1>  -0.1500 
 21 C      -10.3280    -5.1920    -0.6000 C.ar  1 <1>  -0.1500 
 22 H        0.2640    -2.9660    -2.2580 H     1 <1>   0.3700 
 23 H       -1.8730    -2.2510     0.6980 H     1 <1>   0.0800 
 24 H       -2.9450    -2.9780    -0.4690 H     1 <1>   0.0800 
 25 H       -0.5450    -5.2030    -1.6810 H     1 <1>   0.0800 
 26 H       -1.3130    -4.5600    -0.2590 H     1 <1>   0.0800 
 27 H       -3.7880    -0.7900    -1.1390 H     1 <1>   0.0800 
 28 H       -2.6450     0.0130    -0.1070 H     1 <1>   0.0800 
 29 H        1.6670    -4.5570    -0.7790 H     1 <1>   0.0800 
 30 H       -4.8850    -0.0190     0.8930 H     1 <1>   0.0800 
 31 H       -3.7460    -0.8650     1.8930 H     1 <1>   0.0800 
 32 H        0.0470    -6.2720     1.1210 H     1 <1>   0.0800 
 33 H        1.7880    -6.2770     0.9730 H     1 <1>   0.0800 
 34 H        0.8020    -6.8210    -0.3570 H     1 <1>   0.0800 
 35 H        0.1420    -3.7540     1.7230 H     1 <1>   0.0800 
 36 H        1.0170    -2.6660     0.6710 H     1 <1>   0.0800 
 37 H        1.8810    -3.8630     1.5920 H     1 <1>   0.0800 
 38 H       -8.6360    -2.2900    -0.7620 H     1 <1>   0.1500 
 39 H       -7.5220    -5.9640     1.0870 H     1 <1>   0.1500 
 40 H      -10.7470    -3.2920    -1.4760 H     1 <1>   0.1500 
 41 H       -9.6340    -6.9630     0.3700 H     1 <1>   0.1500 
 42 H      -11.2580    -5.6330    -0.9150 H     1 <1>   0.1500 
@<TRIPOS>BOND
  1   1   2  2   
  2   2   3  am  
  3   2   4  1   
  4   3   5  1   
  5   3  22  1   
  6   4   6  1   
  7   4  23  1   
  8   4  24  1   
  9   5   7  1   
 10   5  25  1   
 11   5  26  1   
 12   6   8  1   
 13   6  27  1   
 14   6  28  1   
 15   7   9  1   
 16   7  10  1   
 17   7  29  1   
 18   8  11  1   
 19   8  30  1   
 20   8  31  1   
 21   9  32  1   
 22   9  33  1   
 23   9  34  1   
 24  10  35  1   
 25  10  36  1   
 26  10  37  1   
 27  11  12  1   
 28  11  13  2   
 29  12  14  1   
 30  13  15  1   
 31  14  15  2   
 32  15  16  1   
 33  16  17  ar  
 34  16  18  ar  
 35  17  19  ar  
 36  17  38  1   
 37  18  20  ar  
 38  18  39  1   
 39  19  21  ar  
 40  19  40  1   
 41  20  21  ar  
 42  20  41  1   
 43  21  42  1   
@<TRIPOS>SUBSTRUCTURE
  1 ****  12 GROUP 4 **** **** 0

# MOE 2024.06 (io_trps.svl 2023.06)
