@<TRIPOS>MOLECULE
4-[(1-Methanesulfonyl-piperidine-3-carbonyl)-amino]-benzoic acid methyl ester
43 44 1 0 0 
SMALL
USER_CHARGES


@<TRIPOS>ATOM
  1 S        0.1260    -0.0910     1.1450 S.o2  1 <1>   1.3330 
  2 O        0.5260     0.9390     2.0740 O.2   1 <1>  -0.6500 
  3 O       -0.8880    -1.0540     1.5050 O.2   1 <1>  -0.6500 
  4 N        1.5180    -0.9450     0.6900 N.am  1 <1>  -0.8490 
  5 C       -0.4070     0.7140    -0.3550 C.3   1 <1>  -0.1350 
  6 C        2.6390    -0.0960     0.2700 C.3   1 <1>   0.1960 
  7 C        1.2730    -2.0760    -0.2080 C.3   1 <1>   0.1960 
  8 C        3.9340    -0.9150     0.1970 C.3   1 <1>  -0.0190 
  9 C        2.5290    -2.9480    -0.3070 C.3   1 <1>  -0.1600 
 10 C        5.0850    -0.0330    -0.2640 C.2   1 <1>   0.5690 
 11 C        3.7580    -2.1320    -0.7310 C.3   1 <1>  -0.1600 
 12 O        4.8920     0.7400    -1.1700 O.2   1 <1>  -0.5700 
 13 N        6.2930    -0.1820     0.3650 N.am  1 <1>  -0.5470 
 14 C        7.5180     0.4680     0.1810 C.ar  1 <1>   0.1170 
 15 C        8.6710    -0.1230     0.6870 C.ar  1 <1>  -0.1500 
 16 C        7.6530     1.6890    -0.4720 C.ar  1 <1>  -0.1500 
 17 C        9.9070     0.4780     0.5400 C.ar  1 <1>  -0.1500 
 18 C        8.8900     2.2870    -0.6180 C.ar  1 <1>  -0.1500 
 19 C       10.0560     1.7020    -0.1180 C.ar  1 <1>   0.0860 
 20 C       11.3470     2.3430    -0.2800 C.2   1 <1>   0.6340 
 21 O       11.4970     3.4110    -0.8390 O.2   1 <1>  -0.5700 
 22 O       12.4250     1.7220     0.2140 O.3   1 <1>  -0.4300 
 23 C       13.7210     2.2770     0.1000 C.3   1 <1>   0.0400 
 24 H       -0.6240    -0.0100    -1.1140 H     1 <1>   0.0800 
 25 H        0.3470     1.3860    -0.7110 H     1 <1>   0.0800 
 26 H       -1.2980     1.2780    -0.1610 H     1 <1>   0.0800 
 27 H        2.7750     0.7040     0.9810 H     1 <1>   0.0800 
 28 H        2.4270     0.3400    -0.6920 H     1 <1>   0.0800 
 29 H        0.9990    -1.7180    -1.1870 H     1 <1>   0.0800 
 30 H        0.4640    -2.6770     0.1740 H     1 <1>   0.0800 
 31 H        4.1470    -1.2620     1.1920 H     1 <1>   0.0800 
 32 H        2.3580    -3.7400    -1.0140 H     1 <1>   0.0800 
 33 H        2.7060    -3.4020     0.6540 H     1 <1>   0.0800 
 34 H        4.6380    -2.7520    -0.6990 H     1 <1>   0.0800 
 35 H        3.6280    -1.7910    -1.7440 H     1 <1>   0.0800 
 36 H        6.3140    -0.9200     1.0660 H     1 <1>   0.3700 
 37 H        8.6040    -1.0650     1.1980 H     1 <1>   0.1500 
 38 H        6.7880     2.1860    -0.8710 H     1 <1>   0.1500 
 39 H       10.7770    -0.0120     0.9430 H     1 <1>   0.1500 
 40 H        8.9590     3.2320    -1.1310 H     1 <1>   0.1500 
 41 H       14.4210     1.6070     0.5660 H     1 <1>   0.0800 
 42 H       13.7350     3.2320     0.5950 H     1 <1>   0.0800 
 43 H       13.9570     2.3950    -0.9430 H     1 <1>   0.0800 
@<TRIPOS>BOND
  1   1   2  2   
  2   1   3  2   
  3   1   4  am  
  4   1   5  1   
  5   4   6  1   
  6   4   7  1   
  7   5  24  1   
  8   5  25  1   
  9   5  26  1   
 10   6   8  1   
 11   6  27  1   
 12   6  28  1   
 13   7   9  1   
 14   7  29  1   
 15   7  30  1   
 16   8  10  1   
 17   8  11  1   
 18   8  31  1   
 19   9  11  1   
 20   9  32  1   
 21   9  33  1   
 22  10  12  2   
 23  10  13  am  
 24  11  34  1   
 25  11  35  1   
 26  13  14  1   
 27  13  36  1   
 28  14  15  ar  
 29  14  16  ar  
 30  15  17  ar  
 31  15  37  1   
 32  16  18  ar  
 33  16  38  1   
 34  17  19  ar  
 35  17  39  1   
 36  18  19  ar  
 37  18  40  1   
 38  19  20  1   
 39  20  21  2   
 40  20  22  1   
 41  22  23  1   
 42  23  41  1   
 43  23  42  1   
 44  23  43  1   
@<TRIPOS>SUBSTRUCTURE
  1 ****  13 GROUP 4 **** **** 0

# MOE 2024.06 (io_trps.svl 2023.06)
