@<TRIPOS>MOLECULE
2-(8-Ethyl-1,7-dimethyl-2,4-dioxo-1,2,4,8-tetrahydro-imidazo[2,1-f]purin-3-yl)-a
39 41 1 0 0 
SMALL
USER_CHARGES


@<TRIPOS>ATOM
  1 O        0.5650    -0.0990    -0.3080 O.2   1 <1>  -0.5760 
  2 C        1.5420     0.6150    -0.4150 C.2   1 <1>   0.6850 
  3 N        1.3850     1.9420    -0.7900 N.am  1 <1>  -0.4280 
  4 N        2.8090     0.1060    -0.1540 N.am  1 <1>  -0.4440 
  5 C        2.4790     2.7720    -0.9710 C.2   1 <1>   0.6980 
  6 C        0.0800     2.5990    -0.4640 C.3   1 <1>   0.1920 
  7 C        3.8810     0.9740    -0.2220 C.2   1 <1>   0.4180 
  8 C        2.9830    -1.3120     0.2750 C.3   1 <1>   0.0490 
  9 O        2.3370     3.8980    -1.4210 O.2   1 <1>  -0.5760 
 10 C        3.7620     2.2630    -0.6200 C.2   1 <1>   0.2680 
 11 C        0.0280     2.9960     1.0150 C.2   1 <1>   0.5630 
 12 N        5.1870     0.7160     0.0830 N.pl3 1 <1>  -0.7050 
 13 N        5.0510     2.8100    -0.5650 N.pl3 1 <1>  -0.6350 
 14 O        1.0500     3.0540     1.6570 O.2   1 <1>  -0.5760 
 15 N       -1.1500     3.2770     1.6060 N.am  1 <1>  -0.8040 
 16 C        5.8620     1.8550    -0.1280 C.cat 1 <1>   1.0680 
 17 C        5.8130     3.9450    -0.7380 C.2   1 <1>   0.2200 
 18 N        7.1270     2.2960    -0.0130 N.pl3 1 <1>  -0.5740 
 19 C        7.0840     3.6300    -0.4030 C.2   1 <1>   0.1550 
 20 C        8.3650     1.6000     0.4330 C.3   1 <1>   0.1580 
 21 C        8.3150     4.5170    -0.4160 C.3   1 <1>  -0.1120 
 22 C        8.1220     0.1520     0.8550 C.3   1 <1>  -0.2490 
 23 H       -0.7330     1.9300    -0.6820 H     1 <1>   0.0690 
 24 H       -0.0510     3.4790    -1.0670 H     1 <1>   0.0690 
 25 H        2.1910    -1.9240    -0.1230 H     1 <1>   0.0690 
 26 H        2.9560    -1.3700     1.3500 H     1 <1>   0.0690 
 27 H        3.9190    -1.7020    -0.0830 H     1 <1>   0.0690 
 28 H        5.5990    -0.1390     0.4460 H     1 <1>   0.4430 
 29 H       -1.1610     3.5300     2.5960 H     1 <1>   0.3620 
 30 H       -2.0630     3.2250     1.1500 H     1 <1>   0.3620 
 31 H        5.3930     4.8780    -1.0830 H     1 <1>   0.1400 
 32 H        8.7880     2.1400     1.2640 H     1 <1>   0.0690 
 33 H        9.0820     1.6170    -0.3710 H     1 <1>   0.0690 
 34 H        8.7330     4.5910     0.5720 H     1 <1>   0.0690 
 35 H        8.0600     5.5070    -0.7530 H     1 <1>   0.0690 
 36 H        9.0580     4.1130    -1.0810 H     1 <1>   0.0690 
 37 H        7.4450     0.1010     1.6890 H     1 <1>   0.0690 
 38 H        9.0570    -0.2770     1.1730 H     1 <1>   0.0690 
 39 H        7.7630    -0.4360     0.0300 H     1 <1>   0.0690 
@<TRIPOS>BOND
  1   1   2  2   
  2   2   3  am  
  3   2   4  am  
  4   3   5  am  
  5   3   6  1   
  6   4   7  1   
  7   4   8  1   
  8   5   9  2   
  9   5  10  1   
 10   6  11  1   
 11   6  23  1   
 12   6  24  1   
 13   7  10  2   
 14   7  12  1   
 15   8  25  1   
 16   8  26  1   
 17   8  27  1   
 18  10  13  1   
 19  11  14  2   
 20  11  15  am  
 21  12  16  ar  
 22  12  28  1   
 23  13  16  ar  
 24  13  17  1   
 25  15  29  1   
 26  15  30  1   
 27  16  18  ar  
 28  17  19  2   
 29  17  31  1   
 30  18  19  1   
 31  18  20  1   
 32  19  21  1   
 33  20  22  1   
 34  20  32  1   
 35  20  33  1   
 36  21  34  1   
 37  21  35  1   
 38  21  36  1   
 39  22  37  1   
 40  22  38  1   
 41  22  39  1   
@<TRIPOS>SUBSTRUCTURE
  1 ****  10 GROUP 4 **** **** 0

# MOE 2024.06 (io_trps.svl 2023.06)
