@<TRIPOS>MOLECULE
Benzo[1,2,3]thiadiazole-5-carboxylic acid tert-butylamide
29 30 1 0 0 
SMALL
USER_CHARGES


@<TRIPOS>ATOM
  1 S       -0.3980     0.3970    -0.0270 S.3   1 <1>   0.1810 
  2 N       -0.5760     1.4500     1.3060 N.2   1 <1>  -0.2210 
  3 C        1.2500     0.8760    -0.3020 C.ar  1 <1>   0.0400 
  4 N        0.4820     2.0940     1.5230 N.2   1 <1>  -0.2270 
  5 C        1.5330     1.8160     0.6580 C.ar  1 <1>   0.2270 
  6 C        2.1610     0.4610    -1.2560 C.ar  1 <1>  -0.1500 
  7 C        2.7990     2.3790     0.6770 C.ar  1 <1>  -0.1500 
  8 C        3.4190     1.0340    -1.2180 C.ar  1 <1>  -0.1500 
  9 C        3.7650     1.9900    -0.2500 C.ar  1 <1>   0.0860 
 10 C        5.0900     2.5750    -0.2200 C.2   1 <1>   0.5440 
 11 O        5.2250     3.7750    -0.3110 O.2   1 <1>  -0.5700 
 12 N        6.2380     1.8560    -0.0990 N.am  1 <1>  -0.7300 
 13 C        6.5390     0.6440     0.6720 C.3   1 <1>   0.3000 
 14 C        6.3640    -0.5820    -0.2220 C.3   1 <1>  -0.2400 
 15 C        8.0030     0.7640     1.0900 C.3   1 <1>  -0.2400 
 16 C        5.6630     0.5440     1.9230 C.3   1 <1>  -0.2400 
 17 H        1.8930    -0.2740    -1.9950 H     1 <1>   0.1500 
 18 H        3.0330     3.1250     1.4160 H     1 <1>   0.1500 
 19 H        4.1590     0.7500    -1.9470 H     1 <1>   0.1500 
 20 H        7.0660     2.4390    -0.2210 H     1 <1>   0.3700 
 21 H        6.9310    -0.4710    -1.1290 H     1 <1>   0.0800 
 22 H        5.3300    -0.7330    -0.4670 H     1 <1>   0.0800 
 23 H        6.7100    -1.4620     0.2880 H     1 <1>   0.0800 
 24 H        8.3010    -0.1010     1.6550 H     1 <1>   0.0800 
 25 H        8.1480     1.6320     1.7080 H     1 <1>   0.0800 
 26 H        8.6410     0.8340     0.2270 H     1 <1>   0.0800 
 27 H        6.0030    -0.2640     2.5450 H     1 <1>   0.0800 
 28 H        4.6400     0.3420     1.6680 H     1 <1>   0.0800 
 29 H        5.7160     1.4540     2.4940 H     1 <1>   0.0800 
@<TRIPOS>BOND
  1   1   2  1   
  2   1   3  1   
  3   2   4  2   
  4   3   5  ar  
  5   3   6  ar  
  6   4   5  1   
  7   5   7  ar  
  8   6   8  ar  
  9   6  17  1   
 10   7   9  ar  
 11   7  18  1   
 12   8   9  ar  
 13   8  19  1   
 14   9  10  1   
 15  10  11  2   
 16  10  12  am  
 17  12  13  1   
 18  12  20  1   
 19  13  14  1   
 20  13  15  1   
 21  13  16  1   
 22  14  21  1   
 23  14  22  1   
 24  14  23  1   
 25  15  24  1   
 26  15  25  1   
 27  15  26  1   
 28  16  27  1   
 29  16  28  1   
 30  16  29  1   
@<TRIPOS>SUBSTRUCTURE
  1 ****   9 GROUP 4 **** **** 0

# MOE 2024.06 (io_trps.svl 2023.06)
