@<TRIPOS>MOLECULE
N-Bicyclo[2.2.1]hept-2-yl-4-chloro-3-(morpholine-4-sulfonyl)-benzamide
49 52 1 0 0 
SMALL
USER_CHARGES


@<TRIPOS>ATOM
  1 CL       0.4430    -1.2670     3.5190 Cl    1 <1>  -0.1770 
  2 C        1.6870    -1.4230     2.3070 C.ar  1 <1>   0.1770 
  3 C        1.5890    -2.3200     1.2500 C.ar  1 <1>  -0.0090 
  4 C        2.7790    -0.5850     2.4460 C.ar  1 <1>  -0.1500 
  5 S        0.1780    -3.4290     1.0030 S.o2  1 <1>   1.4470 
  6 C        2.6290    -2.3200     0.3260 C.ar  1 <1>  -0.1500 
  7 C        3.7990    -0.6190     1.5150 C.ar  1 <1>  -0.1500 
  8 O        0.6370    -4.5560     0.2210 O.2   1 <1>  -0.6500 
  9 O       -0.5530    -3.7050     2.2190 O.2   1 <1>  -0.6500 
 10 N       -0.8440    -2.5300    -0.0080 N.am  1 <1>  -0.8490 
 11 C        3.7460    -1.4920     0.4290 C.ar  1 <1>   0.0860 
 12 C       -1.6190    -1.5060     0.7150 C.3   1 <1>   0.1960 
 13 C       -1.7700    -3.4000    -0.7520 C.3   1 <1>   0.1960 
 14 C        4.8010    -1.5410    -0.5660 C.2   1 <1>   0.5440 
 15 C       -2.5410    -0.7300    -0.2420 C.3   1 <1>   0.1200 
 16 C       -2.6940    -2.5790    -1.6680 C.3   1 <1>   0.1200 
 17 O        4.5400    -1.7800    -1.7280 O.2   1 <1>  -0.5700 
 18 N        6.1000    -1.3340    -0.2070 N.am  1 <1>  -0.7300 
 19 O       -3.3830    -1.6070    -0.9330 O.3   1 <1>  -0.5600 
 20 C        7.2580    -1.4210    -1.1160 C.3   1 <1>   0.2200 
 21 C        8.0910    -2.7010    -0.8950 C.3   1 <1>  -0.0800 
 22 C        8.2690    -0.2990    -0.8290 C.3   1 <1>  -0.1600 
 23 C        9.4400    -2.2610    -1.4430 C.3   1 <1>  -0.1600 
 24 C        8.4450    -2.8870     0.5950 C.3   1 <1>  -0.1600 
 25 C        9.5660    -1.0640    -0.5140 C.3   1 <1>  -0.0800 
 26 C        9.4200    -1.7280     0.8650 C.3   1 <1>  -0.1600 
 27 H        2.8230     0.0940     3.2800 H     1 <1>   0.1500 
 28 H        2.5760    -2.9920    -0.5180 H     1 <1>   0.1500 
 29 H        4.6390     0.0450     1.6240 H     1 <1>   0.1500 
 30 H       -0.9490    -0.8090     1.1850 H     1 <1>   0.0800 
 31 H       -2.2210    -1.9630     1.4830 H     1 <1>   0.0800 
 32 H       -2.3690    -3.9750    -0.0650 H     1 <1>   0.0800 
 33 H       -1.2100    -4.0900    -1.3610 H     1 <1>   0.0800 
 34 H       -1.9610    -0.1730    -0.9570 H     1 <1>   0.0800 
 35 H       -3.1620    -0.0470     0.3110 H     1 <1>   0.0800 
 36 H       -3.4240    -3.2190    -2.1320 H     1 <1>   0.0800 
 37 H       -2.1220    -2.0890    -2.4370 H     1 <1>   0.0800 
 38 H        6.3540    -1.2900     0.7780 H     1 <1>   0.3700 
 39 H        6.9340    -1.3660    -2.1440 H     1 <1>   0.0800 
 40 H        7.6750    -3.5710    -1.3710 H     1 <1>   0.0800 
 41 H        7.9690     0.3410    -0.0180 H     1 <1>   0.0800 
 42 H        8.4020     0.2950    -1.7150 H     1 <1>   0.0800 
 43 H        9.3990    -1.9810    -2.4830 H     1 <1>   0.0800 
 44 H       10.2160    -2.9930    -1.2880 H     1 <1>   0.0800 
 45 H        8.9500    -3.8280     0.7320 H     1 <1>   0.0800 
 46 H        7.5870    -2.8680     1.2430 H     1 <1>   0.0800 
 47 H       10.4630    -0.4790    -0.6310 H     1 <1>   0.0800 
 48 H       10.3700    -2.1120     1.1980 H     1 <1>   0.0800 
 49 H        9.0420    -1.0420     1.6030 H     1 <1>   0.0800 
@<TRIPOS>BOND
  1   1   2  1   
  2   2   3  ar  
  3   2   4  ar  
  4   3   5  1   
  5   3   6  ar  
  6   4   7  ar  
  7   4  27  1   
  8   5   8  2   
  9   5   9  2   
 10   5  10  am  
 11   6  11  ar  
 12   6  28  1   
 13   7  11  ar  
 14   7  29  1   
 15  10  12  1   
 16  10  13  1   
 17  11  14  1   
 18  12  15  1   
 19  12  30  1   
 20  12  31  1   
 21  13  16  1   
 22  13  32  1   
 23  13  33  1   
 24  14  17  2   
 25  14  18  am  
 26  15  19  1   
 27  15  34  1   
 28  15  35  1   
 29  16  19  1   
 30  16  36  1   
 31  16  37  1   
 32  18  20  1   
 33  18  38  1   
 34  20  21  1   
 35  20  22  1   
 36  20  39  1   
 37  21  23  1   
 38  21  24  1   
 39  21  40  1   
 40  22  25  1   
 41  22  41  1   
 42  22  42  1   
 43  23  25  1   
 44  23  43  1   
 45  23  44  1   
 46  24  26  1   
 47  24  45  1   
 48  24  46  1   
 49  25  26  1   
 50  25  47  1   
 51  26  48  1   
 52  26  49  1   
@<TRIPOS>SUBSTRUCTURE
  1 ****   6 GROUP 4 **** **** 0

# MOE 2024.06 (io_trps.svl 2023.06)
