@<TRIPOS>MOLECULE
NONAME
54 56 1 0 0 
SMALL
USER_CHARGES


@<TRIPOS>ATOM
  1 O        1.0190     0.0930     1.9960 O.2   1 <1>  -0.5700 
  2 C        1.8160     0.7330     1.3470 C.2   1 <1>   0.5690 
  3 N        2.0230     2.0850     1.4540 N.am  1 <1>  -0.4690 
  4 C        2.7580     0.1540     0.2820 C.3   1 <1>   0.4810 
  5 C        3.0650     2.4640     0.6340 C.2   1 <1>  -0.0290 
  6 C        1.3240     2.9400     2.4460 C.3   1 <1>   0.0600 
  7 C        3.5880    -1.0040     0.8600 C.2   1 <1>  -0.1240 
  8 C        1.9190    -0.2480    -0.9380 C.ar  1 <1>  -0.1440 
  9 C        3.5570     1.4150    -0.0740 C.2   1 <1>  -0.1240 
 10 C        3.5110     3.9200     0.6520 C.3   1 <1>  -0.1020 
 11 C        3.4840    -2.2410     0.2810 C.2   1 <1>   0.1770 
 12 C        4.4020    -0.6830     1.9860 C.2   1 <1>   0.7060 
 13 C        1.9530    -1.5570    -1.3910 C.ar  1 <1>   0.0820 
 14 C        1.1150     0.6690    -1.6080 C.ar  1 <1>  -0.1500 
 15 C        4.6090     1.2850    -1.0310 C.2   1 <1>   0.7060 
 16 O        2.7090    -2.4910    -0.7780 O.3   1 <1>  -0.1590 
 17 N        4.1370    -3.3650     0.6900 N.pl3 1 <1>  -0.9000 
 18 O        4.5330     0.4440     2.4350 O.2   1 <1>  -0.5700 
 19 O        5.0830    -1.6580     2.6130 O.3   1 <1>  -0.4300 
 20 C        1.2060    -1.9480    -2.4920 C.ar  1 <1>  -0.1500 
 21 C        0.3680     0.2810    -2.7070 C.ar  1 <1>  -0.1500 
 22 O        5.0050     0.2160    -1.4480 O.2   1 <1>  -0.5700 
 23 O        5.1840     2.3960    -1.4960 O.3   1 <1>  -0.4300 
 24 C        5.8960    -1.3930     3.7350 C.3   1 <1>   0.1200 
 25 C        0.4120    -1.0280    -3.1510 C.ar  1 <1>  -0.1500 
 26 C        6.2320     2.3460    -2.4460 C.3   1 <1>   0.1200 
 27 C        6.5210    -2.7100     4.1840 C.3   1 <1>  -0.2400 
 28 C        6.6750     3.7740    -2.7510 C.3   1 <1>   0.1200 
 29 O        7.7050     3.7290    -3.6860 O.3   1 <1>  -0.5600 
 30 C        8.1990     4.9790    -4.0420 C.3   1 <1>   0.0400 
 31 H        0.5010     2.4020     2.8840 H     1 <1>   0.0800 
 32 H        0.9450     3.8240     1.9660 H     1 <1>   0.0800 
 33 H        2.0110     3.2190     3.2260 H     1 <1>   0.0800 
 34 H        2.7080     4.5530     0.3230 H     1 <1>   0.0800 
 35 H        4.3570     4.0930     0.0170 H     1 <1>   0.0800 
 36 H        3.7900     4.2000     1.6510 H     1 <1>   0.0800 
 37 H        1.0570     1.6930    -1.2820 H     1 <1>   0.1500 
 38 H        4.7720    -3.3550     1.4990 H     1 <1>   0.4000 
 39 H        4.0350    -4.2610     0.2080 H     1 <1>   0.4000 
 40 H        1.2500    -2.9690    -2.8250 H     1 <1>   0.1500 
 41 H       -0.2500     1.0000    -3.2180 H     1 <1>   0.1500 
 42 H        5.2800    -0.9720     4.5120 H     1 <1>   0.0800 
 43 H        6.6540    -0.6830     3.4480 H     1 <1>   0.0800 
 44 H       -0.1680    -1.3300    -4.0060 H     1 <1>   0.1500 
 45 H        5.8630     1.8660    -3.3360 H     1 <1>   0.0800 
 46 H        7.0450     1.7790    -2.0280 H     1 <1>   0.0800 
 47 H        5.7530    -3.4110     4.4550 H     1 <1>   0.0800 
 48 H        7.1470    -2.5390     5.0410 H     1 <1>   0.0800 
 49 H        7.1260    -3.1210     3.3960 H     1 <1>   0.0800 
 50 H        7.0440     4.2460    -1.8570 H     1 <1>   0.0800 
 51 H        5.8570     4.3360    -3.1680 H     1 <1>   0.0800 
 52 H        8.9840     4.8340    -4.7650 H     1 <1>   0.0800 
 53 H        8.5970     5.4660    -3.1690 H     1 <1>   0.0800 
 54 H        7.4080     5.5640    -4.4780 H     1 <1>   0.0800 
@<TRIPOS>BOND
  1   1   2  2   
  2   2   3  am  
  3   2   4  1   
  4   3   5  1   
  5   3   6  1   
  6   4   7  1   
  7   4   8  1   
  8   4   9  1   
  9   5   9  2   
 10   5  10  1   
 11   6  31  1   
 12   6  32  1   
 13   6  33  1   
 14   7  11  2   
 15   7  12  1   
 16   8  13  ar  
 17   8  14  ar  
 18   9  15  1   
 19  10  34  1   
 20  10  35  1   
 21  10  36  1   
 22  11  16  1   
 23  11  17  1   
 24  12  18  2   
 25  12  19  1   
 26  13  16  1   
 27  13  20  ar  
 28  14  21  ar  
 29  14  37  1   
 30  15  22  2   
 31  15  23  1   
 32  17  38  1   
 33  17  39  1   
 34  19  24  1   
 35  20  25  ar  
 36  20  40  1   
 37  21  25  ar  
 38  21  41  1   
 39  23  26  1   
 40  24  27  1   
 41  24  42  1   
 42  24  43  1   
 43  25  44  1   
 44  26  28  1   
 45  26  45  1   
 46  26  46  1   
 47  27  47  1   
 48  27  48  1   
 49  27  49  1   
 50  28  29  1   
 51  28  50  1   
 52  28  51  1   
 53  29  30  1   
 54  30  52  1   
 55  30  53  1   
 56  30  54  1   
@<TRIPOS>SUBSTRUCTURE
  1 ****   9 GROUP 4 **** **** 0

# MOE 2024.06 (io_trps.svl 2023.06)
