@<TRIPOS>MOLECULE
2-Oxo-6-piperidin-1-ylmethyl-4-p-tolyl-1,2,3,4-tetrahydro-pyrimidine-5-carboxyli
51 53 1 0 0 
SMALL
USER_CHARGES


@<TRIPOS>ATOM
  1 O       -0.2480     0.9840    -0.8500 O.2   1 <1>  -0.5700 
  2 C       -1.3260     1.3310    -0.4350 C.2   1 <1>   0.6900 
  3 N       -2.4510     0.7900    -0.9630 N.am  1 <1>  -0.5390 
  4 N       -1.4440     2.2540     0.5280 N.am  1 <1>  -0.7300 
  5 C       -3.7370     1.1220    -0.5580 C.2   1 <1>  -0.0290 
  6 C       -2.7210     2.9020     0.8840 C.3   1 <1>   0.5020 
  7 C       -3.9290     2.1140     0.3600 C.2   1 <1>  -0.1240 
  8 C       -4.8410     0.2730    -1.1910 C.3   1 <1>   0.4810 
  9 C       -2.7230     4.3190     0.3180 C.ar  1 <1>  -0.1440 
 10 C       -5.1550     2.5580     0.9510 C.2   1 <1>   0.7060 
 11 N       -4.8360    -1.0730    -0.5540 N.4   1 <1>  -0.9590 
 12 C       -3.0550     5.3890     1.1370 C.ar  1 <1>  -0.1500 
 13 C       -2.4100     4.5700    -1.0130 C.ar  1 <1>  -0.1500 
 14 O       -5.2050     3.1960     1.9820 O.2   1 <1>  -0.5700 
 15 O       -6.3080     2.2070     0.3700 O.3   1 <1>  -0.4300 
 16 C       -5.5880    -2.0670    -1.3740 C.3   1 <1>   0.3430 
 17 C       -5.3470    -1.0100     0.8480 C.3   1 <1>   0.3430 
 18 C       -3.0720     6.6800     0.6390 C.ar  1 <1>  -0.1500 
 19 C       -2.4270     5.8610    -1.5100 C.ar  1 <1>  -0.1500 
 20 C       -7.5530     2.6790     0.8600 C.3   1 <1>   0.0400 
 21 C       -5.4450    -3.4580    -0.7540 C.3   1 <1>  -0.1600 
 22 C       -5.2030    -2.3800     1.5120 C.3   1 <1>  -0.1600 
 23 C       -2.7600     6.9230    -0.6870 C.ar  1 <1>  -0.1430 
 24 C       -5.9090    -3.4790     0.7080 C.3   1 <1>  -0.1600 
 25 C       -2.7770     8.3400    -1.2300 C.3   1 <1>  -0.0970 
 26 H       -2.2280     0.1550    -1.7330 H     1 <1>   0.3700 
 27 H       -0.6020     2.7820     0.7580 H     1 <1>   0.3700 
 28 H       -2.7620     2.9470     1.9600 H     1 <1>   0.0800 
 29 H       -4.6400     0.1830    -2.2460 H     1 <1>   0.0800 
 30 H       -5.8100     0.7270    -1.0870 H     1 <1>   0.0800 
 31 H       -3.8560    -1.3780    -0.4970 H     1 <1>   0.4500 
 32 H       -3.3100     5.2290     2.1720 H     1 <1>   0.1500 
 33 H       -2.1460     3.7650    -1.6750 H     1 <1>   0.1500 
 34 H       -5.2060    -2.0840    -2.3820 H     1 <1>   0.0800 
 35 H       -6.6310    -1.7970    -1.4100 H     1 <1>   0.0800 
 36 H       -6.3840    -0.7160     0.8480 H     1 <1>   0.0800 
 37 H       -4.7880    -0.2820     1.4160 H     1 <1>   0.0800 
 38 H       -3.3320     7.4960     1.2910 H     1 <1>   0.1500 
 39 H       -2.1770     6.0370    -2.5410 H     1 <1>   0.1500 
 40 H       -8.3400     2.2980     0.2320 H     1 <1>   0.0800 
 41 H       -7.5530     3.7560     0.8330 H     1 <1>   0.0800 
 42 H       -7.6880     2.3380     1.8720 H     1 <1>   0.0800 
 43 H       -4.4180    -3.7750    -0.8180 H     1 <1>   0.0800 
 44 H       -6.0320    -4.1590    -1.3230 H     1 <1>   0.0800 
 45 H       -5.6240    -2.3370     2.5010 H     1 <1>   0.0800 
 46 H       -4.1580    -2.6170     1.6190 H     1 <1>   0.0800 
 47 H       -5.7010    -4.4430     1.1440 H     1 <1>   0.0800 
 48 H       -6.9750    -3.3260     0.7490 H     1 <1>   0.0800 
 49 H       -3.0060     8.3390    -2.2810 H     1 <1>   0.0800 
 50 H       -1.8150     8.7970    -1.0850 H     1 <1>   0.0800 
 51 H       -3.5210     8.9280    -0.7230 H     1 <1>   0.0800 
@<TRIPOS>BOND
  1   1   2  2   
  2   2   3  am  
  3   2   4  am  
  4   3   5  1   
  5   3  26  1   
  6   4   6  1   
  7   4  27  1   
  8   5   7  2   
  9   5   8  1   
 10   6   7  1   
 11   6   9  1   
 12   6  28  1   
 13   7  10  1   
 14   8  11  1   
 15   8  29  1   
 16   8  30  1   
 17   9  12  ar  
 18   9  13  ar  
 19  10  14  2   
 20  10  15  1   
 21  11  16  1   
 22  11  17  1   
 23  11  31  1   
 24  12  18  ar  
 25  12  32  1   
 26  13  19  ar  
 27  13  33  1   
 28  15  20  1   
 29  16  21  1   
 30  16  34  1   
 31  16  35  1   
 32  17  22  1   
 33  17  36  1   
 34  17  37  1   
 35  18  23  ar  
 36  18  38  1   
 37  19  23  ar  
 38  19  39  1   
 39  20  40  1   
 40  20  41  1   
 41  20  42  1   
 42  21  24  1   
 43  21  43  1   
 44  21  44  1   
 45  22  24  1   
 46  22  45  1   
 47  22  46  1   
 48  23  25  1   
 49  24  47  1   
 50  24  48  1   
 51  25  49  1   
 52  25  50  1   
 53  25  51  1   
@<TRIPOS>SUBSTRUCTURE
  1 ****   7 GROUP 4 **** **** 0

# MOE 2024.06 (io_trps.svl 2023.06)
