@<TRIPOS>MOLECULE
3-(2-Ethoxy-ethyl)-1,6,7-trimethyl-8-(tetrahydro-furan-2-ylmethyl)-1H,8H-imidazo
56 59 1 0 0 
SMALL
USER_CHARGES


@<TRIPOS>ATOM
  1 O        1.7560    -0.3450    -1.2380 O.2   1 <1>  -0.5740 
  2 C        2.4530     0.5750    -0.8620 C.2   1 <1>   0.6870 
  3 N        1.9190     1.8530    -0.7400 N.am  1 <1>  -0.4250 
  4 N        3.7860     0.3450    -0.5470 N.am  1 <1>  -0.4410 
  5 C        2.6820     2.9130    -0.2690 C.2   1 <1>   0.7000 
  6 C        0.4910     2.0860    -1.1260 C.3   1 <1>   0.1340 
  7 C        4.5470     1.4120    -0.1160 C.2   1 <1>   0.4210 
  8 C        4.3800    -1.0190    -0.6810 C.3   1 <1>   0.0530 
  9 O        2.1870     4.0160    -0.1090 O.2   1 <1>  -0.5740 
 10 C        4.0560     2.6670     0.0280 C.2   1 <1>   0.2710 
 11 C       -0.4410     1.7800     0.0450 C.3   1 <1>   0.1130 
 12 N        5.8680     1.4100     0.2130 N.pl3 1 <1>  -0.7030 
 13 N        5.1340     3.4640     0.4540 N.pl3 1 <1>  -0.6330 
 14 O       -1.7380     2.0750    -0.3520 O.3   1 <1>  -0.5640 
 15 C        6.1860     2.6610     0.5370 C.cat 1 <1>   1.0690 
 16 C        5.5720     4.7270     0.7940 C.2   1 <1>   0.2350 
 17 C       -2.6970     1.8110     0.6150 C.3   1 <1>   0.1130 
 18 N        7.2910     3.3170     0.9140 N.pl3 1 <1>  -0.5710 
 19 C        6.8950     4.6370     1.0780 C.2   1 <1>   0.1580 
 20 C        4.6100     5.8990     0.7980 C.3   1 <1>  -0.1090 
 21 C       -4.0540     2.1850     0.0310 C.3   1 <1>  -0.2460 
 22 C        8.6360     2.7200     1.1930 C.3   1 <1>   0.1610 
 23 C        7.8690     5.7200     1.5100 C.3   1 <1>  -0.1090 
 24 C        9.2290     1.9460    -0.0010 C.3   1 <1>   0.1940 
 25 O        8.4320     0.8530    -0.3400 O.3   1 <1>  -0.5640 
 26 C       10.5910     1.3320     0.2930 C.3   1 <1>  -0.1660 
 27 C        9.1870    -0.0690    -1.0680 C.3   1 <1>   0.1130 
 28 C       10.6360     0.1270    -0.6300 C.3   1 <1>  -0.1660 
 29 H        0.2300     1.4560    -1.9590 H     1 <1>   0.0730 
 30 H        0.3510     3.1090    -1.4300 H     1 <1>   0.0730 
 31 H        3.6200    -1.7740    -0.5720 H     1 <1>   0.0730 
 32 H        5.1240    -1.1830     0.0780 H     1 <1>   0.0730 
 33 H        4.8310    -1.1230    -1.6520 H     1 <1>   0.0730 
 34 H       -0.1980     2.3960     0.8940 H     1 <1>   0.0730 
 35 H       -0.3900     0.7350     0.3030 H     1 <1>   0.0730 
 36 H        6.6190     0.7300     0.0330 H     1 <1>   0.4450 
 37 H       -2.4850     2.4040     1.4890 H     1 <1>   0.0730 
 38 H       -2.6660     0.7630     0.8610 H     1 <1>   0.0730 
 39 H        4.1910     6.0350    -0.1830 H     1 <1>   0.0730 
 40 H        5.1060     6.8070     1.0870 H     1 <1>   0.0730 
 41 H        3.8070     5.7130     1.4890 H     1 <1>   0.0730 
 42 H       -4.0690     3.2300    -0.2240 H     1 <1>   0.0730 
 43 H       -4.8260     1.9950     0.7540 H     1 <1>   0.0730 
 44 H       -4.2510     1.5970    -0.8470 H     1 <1>   0.0730 
 45 H        8.5600     2.0580     2.0390 H     1 <1>   0.0730 
 46 H        9.3260     3.5000     1.4600 H     1 <1>   0.0730 
 47 H        8.2780     5.4870     2.4770 H     1 <1>   0.0730 
 48 H        7.3810     6.6750     1.5730 H     1 <1>   0.0730 
 49 H        8.6730     5.7990     0.8000 H     1 <1>   0.0730 
 50 H        9.3010     2.5840    -0.8660 H     1 <1>   0.0730 
 51 H       10.6440     1.0090     1.3190 H     1 <1>   0.0730 
 52 H       11.3930     2.0240     0.1010 H     1 <1>   0.0730 
 53 H        9.0680     0.1460    -2.1160 H     1 <1>   0.0730 
 54 H        8.8310    -1.0620    -0.8520 H     1 <1>   0.0730 
 55 H       11.0090    -0.7450    -0.1230 H     1 <1>   0.0730 
 56 H       11.2530     0.3170    -1.4910 H     1 <1>   0.0730 
@<TRIPOS>BOND
  1   1   2  2   
  2   2   3  am  
  3   2   4  am  
  4   3   5  am  
  5   3   6  1   
  6   4   7  1   
  7   4   8  1   
  8   5   9  2   
  9   5  10  1   
 10   6  11  1   
 11   6  29  1   
 12   6  30  1   
 13   7  10  2   
 14   7  12  1   
 15   8  31  1   
 16   8  32  1   
 17   8  33  1   
 18  10  13  1   
 19  11  14  1   
 20  11  34  1   
 21  11  35  1   
 22  12  15  ar  
 23  12  36  1   
 24  13  15  ar  
 25  13  16  1   
 26  14  17  1   
 27  15  18  ar  
 28  16  19  2   
 29  16  20  1   
 30  17  21  1   
 31  17  37  1   
 32  17  38  1   
 33  18  19  1   
 34  18  22  1   
 35  19  23  1   
 36  20  39  1   
 37  20  40  1   
 38  20  41  1   
 39  21  42  1   
 40  21  43  1   
 41  21  44  1   
 42  22  24  1   
 43  22  45  1   
 44  22  46  1   
 45  23  47  1   
 46  23  48  1   
 47  23  49  1   
 48  24  25  1   
 49  24  26  1   
 50  24  50  1   
 51  25  27  1   
 52  26  28  1   
 53  26  51  1   
 54  26  52  1   
 55  27  28  1   
 56  27  53  1   
 57  27  54  1   
 58  28  55  1   
 59  28  56  1   
@<TRIPOS>SUBSTRUCTURE
  1 ****  10 GROUP 4 **** **** 0

# MOE 2024.06 (io_trps.svl 2023.06)
