@<TRIPOS>MOLECULE
8-(4-Ethoxy-phenyl)-1,6,7-trimethyl-3-propyl-1H,8H-imidazo[2,1-f]purine-2,4-dion
55 58 1 0 0 
SMALL
USER_CHARGES


@<TRIPOS>ATOM
  1 O        0.8910    -0.3220    -0.5970 O.2   1 <1>  -0.5740 
  2 C        1.8250     0.4510    -0.5410 C.2   1 <1>   0.6870 
  3 N        1.6020     1.8240    -0.5350 N.am  1 <1>  -0.4250 
  4 N        3.1230    -0.0460    -0.4880 N.am  1 <1>  -0.4410 
  5 C        2.6580     2.7270    -0.5080 C.2   1 <1>   0.7000 
  6 C        0.1990     2.3380    -0.5340 C.3   1 <1>   0.1330 
  7 C        4.1670     0.8570    -0.4730 C.2   1 <1>   0.4210 
  8 C        3.3720    -1.5190    -0.4750 C.3   1 <1>   0.0530 
  9 O        2.4540     3.9290    -0.5100 O.2   1 <1>  -0.5740 
 10 C        3.9850     2.2010    -0.4800 C.2   1 <1>   0.2710 
 11 C       -0.2990     2.5040     0.9050 C.3   1 <1>  -0.1660 
 12 N        5.5040     0.5810    -0.4540 N.pl3 1 <1>  -0.7030 
 13 N        5.2700     2.7700    -0.4600 N.pl3 1 <1>  -0.6330 
 14 C       -1.7370     3.0300     0.9340 C.3   1 <1>  -0.2460 
 15 C        6.1290     1.7620    -0.4460 C.cat 1 <1>   1.0690 
 16 C        6.0190     3.9290    -0.4520 C.2   1 <1>   0.2350 
 17 N        7.3990     2.1790    -0.4280 N.pl3 1 <1>  -0.5550 
 18 C        7.3240     3.5660    -0.4330 C.2   1 <1>   0.1580 
 19 C        5.3460     5.2880    -0.4660 C.3   1 <1>  -0.1090 
 20 C        8.5430     1.3660    -0.4110 C.ar  1 <1>   0.3050 
 21 C        8.5850     4.4130    -0.4190 C.3   1 <1>  -0.1090 
 22 C        9.1450     1.0280     0.7930 C.ar  1 <1>  -0.1570 
 23 C        9.0730     0.8810    -1.5970 C.ar  1 <1>  -0.1570 
 24 C       10.2580     0.2060     0.8160 C.ar  1 <1>  -0.1570 
 25 C       10.1840     0.0580    -1.5770 C.ar  1 <1>  -0.1570 
 26 C       10.7830    -0.2870    -0.3760 C.ar  1 <1>   0.0760 
 27 O       11.8640    -1.1030    -0.4550 O.3   1 <1>  -0.3680 
 28 C       12.6630    -1.4410     0.6600 C.3   1 <1>   0.1130 
 29 C       13.6010    -0.2800     0.9910 C.3   1 <1>  -0.2460 
 30 H       -0.4430     1.6550    -1.0640 H     1 <1>   0.0730 
 31 H        0.1520     3.2840    -1.0470 H     1 <1>   0.0730 
 32 H        2.5180    -2.0430    -0.0780 H     1 <1>   0.0730 
 33 H        4.2200    -1.7530     0.1430 H     1 <1>   0.0730 
 34 H        3.5500    -1.8660    -1.4780 H     1 <1>   0.0730 
 35 H        0.3340     3.1970     1.4310 H     1 <1>   0.0730 
 36 H       -0.2680     1.5520     1.4090 H     1 <1>   0.0730 
 37 H        5.9700    -0.3250    -0.4520 H     1 <1>   0.4450 
 38 H       -1.7980     3.9900     0.4520 H     1 <1>   0.0730 
 39 H       -2.0680     3.1380     1.9520 H     1 <1>   0.0730 
 40 H       -2.3990     2.3460     0.4310 H     1 <1>   0.0730 
 41 H        4.7120     5.3930     0.3970 H     1 <1>   0.0730 
 42 H        4.7400     5.3900    -1.3480 H     1 <1>   0.0730 
 43 H        6.0720     6.0790    -0.4560 H     1 <1>   0.0730 
 44 H        9.1890     4.1900    -1.2810 H     1 <1>   0.0730 
 45 H        9.1600     4.2070     0.4660 H     1 <1>   0.0730 
 46 H        8.3470     5.4610    -0.4330 H     1 <1>   0.0730 
 47 H        8.7480     1.4080     1.7170 H     1 <1>   0.1430 
 48 H        8.6270     1.1450    -2.5390 H     1 <1>   0.1430 
 49 H       10.7050    -0.0390     1.7620 H     1 <1>   0.1430 
 50 H       10.6040    -0.3240    -2.4920 H     1 <1>   0.1430 
 51 H       13.2410    -2.3050     0.3820 H     1 <1>   0.0730 
 52 H       12.0310    -1.7090     1.4870 H     1 <1>   0.0730 
 53 H       14.2200    -0.0540     0.1400 H     1 <1>   0.0730 
 54 H       14.2390    -0.5540     1.8120 H     1 <1>   0.0730 
 55 H       13.0460     0.5970     1.2700 H     1 <1>   0.0730 
@<TRIPOS>BOND
  1   1   2  2   
  2   2   3  am  
  3   2   4  am  
  4   3   5  am  
  5   3   6  1   
  6   4   7  1   
  7   4   8  1   
  8   5   9  2   
  9   5  10  1   
 10   6  11  1   
 11   6  30  1   
 12   6  31  1   
 13   7  10  2   
 14   7  12  1   
 15   8  32  1   
 16   8  33  1   
 17   8  34  1   
 18  10  13  1   
 19  11  14  1   
 20  11  35  1   
 21  11  36  1   
 22  12  15  ar  
 23  12  37  1   
 24  13  15  ar  
 25  13  16  1   
 26  14  38  1   
 27  14  39  1   
 28  14  40  1   
 29  15  17  ar  
 30  16  18  2   
 31  16  19  1   
 32  17  18  1   
 33  17  20  1   
 34  18  21  1   
 35  19  41  1   
 36  19  42  1   
 37  19  43  1   
 38  20  22  ar  
 39  20  23  ar  
 40  21  44  1   
 41  21  45  1   
 42  21  46  1   
 43  22  24  ar  
 44  22  47  1   
 45  23  25  ar  
 46  23  48  1   
 47  24  26  ar  
 48  24  49  1   
 49  25  26  ar  
 50  25  50  1   
 51  26  27  1   
 52  27  28  1   
 53  28  29  1   
 54  28  51  1   
 55  28  52  1   
 56  29  53  1   
 57  29  54  1   
 58  29  55  1   
@<TRIPOS>SUBSTRUCTURE
  1 ****  15 GROUP 4 **** **** 0

# MOE 2024.06 (io_trps.svl 2023.06)
