@<TRIPOS>MOLECULE
2-Methyl-4-(6-methyl-pyridin-2-yl)-5-oxo-1,4,5,6,7,8-hexahydro-quinoline-3-carbo
43 45 1 0 0 
SMALL
USER_CHARGES


@<TRIPOS>ATOM
  1 O        0.0160    -0.4420     1.2500 O.2   1 <1>  -0.5700 
  2 C        0.0870    -1.4700     0.6210 C.2   1 <1>   0.4950 
  3 C        1.3020    -2.0870     0.1550 C.2   1 <1>   0.0140 
  4 C       -1.2300    -2.1730     0.3360 C.3   1 <1>  -0.0990 
  5 C        1.3020    -3.4120    -0.1900 C.2   1 <1>  -0.0380 
  6 C        2.5560    -1.3390     0.0740 C.2   1 <1>   0.0000 
  7 C       -1.1040    -3.6850     0.5540 C.3   1 <1>  -0.1600 
  8 N        2.4760    -4.0770    -0.4360 N.pl3 1 <1>  -0.6000 
  9 C        0.0410    -4.2630    -0.2850 C.3   1 <1>  -0.0220 
 10 C        3.7670    -2.1600     0.1740 C.2   1 <1>   0.0140 
 11 C        2.5780     0.0120    -0.2250 C.2   1 <1>   0.1000 
 12 C        3.6850    -3.4960    -0.1260 C.2   1 <1>  -0.0380 
 13 C        5.0240    -1.5590     0.5280 C.2   1 <1>   0.7060 
 14 N        3.6050     0.8790     0.2270 N.pl3 1 <1>  -0.6000 
 15 C        1.5970     0.6730    -1.0420 C.2   1 <1>  -0.1500 
 16 C        4.8440    -4.4830    -0.1320 C.3   1 <1>  -0.1020 
 17 O        5.2210    -0.9700     1.5780 O.2   1 <1>  -0.5700 
 18 O        6.0270    -1.6350    -0.3560 O.3   1 <1>  -0.4300 
 19 C        3.6730     2.2250    -0.0810 C.2   1 <1>  -0.0380 
 20 C        1.6540     1.9920    -1.3550 C.2   1 <1>  -0.1500 
 21 C        7.2710    -1.0050    -0.1280 C.3   1 <1>   0.0400 
 22 C        2.7240     2.7890    -0.8620 C.2   1 <1>  -0.1500 
 23 C        4.8410     2.9810     0.5120 C.3   1 <1>  -0.1020 
 24 H       -1.5160    -1.9660    -0.6790 H     1 <1>   0.0800 
 25 H       -1.9910    -1.7780     0.9860 H     1 <1>   0.0800 
 26 H       -2.0290    -4.1760     0.3040 H     1 <1>   0.0800 
 27 H       -0.9010    -3.8680     1.5960 H     1 <1>   0.0800 
 28 H        2.4550    -5.0640    -0.7170 H     1 <1>   0.4000 
 29 H        0.2450    -5.2620     0.0570 H     1 <1>   0.0800 
 30 H       -0.2560    -4.3190    -1.3170 H     1 <1>   0.0800 
 31 H        4.2380     0.5050     0.9520 H     1 <1>   0.4000 
 32 H        0.7940     0.0770    -1.4270 H     1 <1>   0.1500 
 33 H        4.5740    -5.3670     0.4160 H     1 <1>   0.0800 
 34 H        5.7290    -4.0800     0.3240 H     1 <1>   0.0800 
 35 H        5.0780    -4.7610    -1.1440 H     1 <1>   0.0800 
 36 H        0.9100     2.4660    -1.9690 H     1 <1>   0.1500 
 37 H        7.9130    -1.2050    -0.9680 H     1 <1>   0.0800 
 38 H        7.7040    -1.4010     0.7740 H     1 <1>   0.0800 
 39 H        7.1090     0.0550    -0.0310 H     1 <1>   0.0800 
 40 H        2.7400     3.8310    -1.1240 H     1 <1>   0.1500 
 41 H        5.7640     2.5520     0.1690 H     1 <1>   0.0800 
 42 H        4.8030     2.9240     1.5850 H     1 <1>   0.0800 
 43 H        4.8080     4.0150     0.2200 H     1 <1>   0.0800 
@<TRIPOS>BOND
  1   1   2  2   
  2   2   3  1   
  3   2   4  1   
  4   3   5  2   
  5   3   6  1   
  6   4   7  1   
  7   4  24  1   
  8   4  25  1   
  9   5   8  1   
 10   5   9  1   
 11   6  10  1   
 12   6  11  2   
 13   7   9  1   
 14   7  26  1   
 15   7  27  1   
 16   8  12  1   
 17   8  28  1   
 18   9  29  1   
 19   9  30  1   
 20  10  12  2   
 21  10  13  1   
 22  11  14  1   
 23  11  15  1   
 24  12  16  1   
 25  13  17  2   
 26  13  18  1   
 27  14  19  1   
 28  14  31  1   
 29  15  20  2   
 30  15  32  1   
 31  16  33  1   
 32  16  34  1   
 33  16  35  1   
 34  18  21  1   
 35  19  22  2   
 36  19  23  1   
 37  20  22  1   
 38  20  36  1   
 39  21  37  1   
 40  21  38  1   
 41  21  39  1   
 42  22  40  1   
 43  23  41  1   
 44  23  42  1   
 45  23  43  1   
@<TRIPOS>SUBSTRUCTURE
  1 ****   6 GROUP 4 **** **** 0

# MOE 2024.06 (io_trps.svl 2023.06)
