@<TRIPOS>MOLECULE
2-[5-(4-Methoxy-phenyl)-4H-[1,2,4]triazol-3-ylsulfanyl]-1-pyrrolidin-1-yl-ethano
40 42 1 0 0 
SMALL
USER_CHARGES


@<TRIPOS>ATOM
  1 S       -0.0190     0.4000    -1.5650 S.3   1 <1>  -0.2860 
  2 C       -1.3610     0.1630    -0.4010 C.2   1 <1>   0.2420 
  3 C        1.3390     1.1890    -0.5680 C.3   1 <1>   0.1310 
  4 N       -1.3240     0.4530     0.8500 N.2   1 <1>  -0.3380 
  5 N       -2.5200    -0.3370    -0.7850 N.pl3 1 <1>   0.0330 
  6 C        1.5520     2.6310    -1.0050 C.2   1 <1>   0.5690 
  7 N       -2.5290     0.1370     1.3280 N.2   1 <1>  -0.3380 
  8 C       -3.2450    -0.3420     0.3440 C.2   1 <1>   0.1330 
  9 O        2.4720     2.8560    -1.7580 O.2   1 <1>  -0.5700 
 10 N        0.7470     3.6400    -0.5460 N.am  1 <1>  -0.6600 
 11 C       -4.6130    -0.8020     0.4270 C.ar  1 <1>   0.0530 
 12 C       -0.4000     3.5040     0.3800 C.3   1 <1>   0.1400 
 13 C        0.9300     5.0460    -0.9620 C.3   1 <1>   0.1400 
 14 C       -5.4380    -0.3910     1.4750 C.ar  1 <1>  -0.1500 
 15 C       -5.1680    -1.6640    -0.5220 C.ar  1 <1>  -0.1500 
 16 C       -0.7750     4.9360     0.7440 C.3   1 <1>  -0.1600 
 17 C       -0.3080     5.7700    -0.4460 C.3   1 <1>  -0.1600 
 18 C       -6.7520    -0.8090     1.5670 C.ar  1 <1>  -0.1500 
 19 C       -6.4830    -2.0870    -0.4370 C.ar  1 <1>  -0.1500 
 20 C       -7.2880    -1.6570     0.6130 C.ar  1 <1>   0.0830 
 21 O       -8.5830    -2.0200     0.7720 O.3   1 <1>  -0.3630 
 22 C       -9.2220    -2.8950    -0.1310 C.3   1 <1>   0.0400 
 23 H        2.2280     0.6170    -0.7550 H     1 <1>   0.0800 
 24 H        1.0890     1.1280     0.4730 H     1 <1>   0.0800 
 25 H       -2.7890    -0.6250    -1.7240 H     1 <1>   0.2700 
 26 H       -0.1390     2.9340     1.2550 H     1 <1>   0.0800 
 27 H       -1.2170     3.0300    -0.1370 H     1 <1>   0.0800 
 28 H        1.0200     5.1200    -2.0330 H     1 <1>   0.0800 
 29 H        1.8200     5.4350    -0.4980 H     1 <1>   0.0800 
 30 H       -5.0400     0.2670     2.2290 H     1 <1>   0.1500 
 31 H       -4.5690    -2.0220    -1.3380 H     1 <1>   0.1500 
 32 H       -0.2330     5.2240     1.6280 H     1 <1>   0.0800 
 33 H       -1.8290     5.0360     0.9300 H     1 <1>   0.0800 
 34 H       -1.0610     5.7640    -1.2150 H     1 <1>   0.0800 
 35 H       -0.0920     6.7880    -0.1760 H     1 <1>   0.0800 
 36 H       -7.3720    -0.4810     2.3810 H     1 <1>   0.1500 
 37 H       -6.8650    -2.7490    -1.1900 H     1 <1>   0.1500 
 38 H      -10.2340    -3.0380     0.2030 H     1 <1>   0.0800 
 39 H       -8.7010    -3.8360    -0.1310 H     1 <1>   0.0800 
 40 H       -9.2190    -2.4500    -1.1100 H     1 <1>   0.0800 
@<TRIPOS>BOND
  1   1   2  1   
  2   1   3  1   
  3   2   4  2   
  4   2   5  1   
  5   3   6  1   
  6   3  23  1   
  7   3  24  1   
  8   4   7  1   
  9   5   8  1   
 10   5  25  1   
 11   6   9  2   
 12   6  10  am  
 13   7   8  2   
 14   8  11  1   
 15  10  12  1   
 16  10  13  1   
 17  11  14  ar  
 18  11  15  ar  
 19  12  16  1   
 20  12  26  1   
 21  12  27  1   
 22  13  17  1   
 23  13  28  1   
 24  13  29  1   
 25  14  18  ar  
 26  14  30  1   
 27  15  19  ar  
 28  15  31  1   
 29  16  17  1   
 30  16  32  1   
 31  16  33  1   
 32  17  34  1   
 33  17  35  1   
 34  18  20  ar  
 35  18  36  1   
 36  19  20  ar  
 37  19  37  1   
 38  20  21  1   
 39  21  22  1   
 40  22  38  1   
 41  22  39  1   
 42  22  40  1   
@<TRIPOS>SUBSTRUCTURE
  1 ****   8 GROUP 4 **** **** 0

# MOE 2024.06 (io_trps.svl 2023.06)
