@<TRIPOS>MOLECULE
5,5-Dimethyl-2-(4-oxo-4-piperidin-1-yl-butyrylamino)-4,7-dihydro-5H-thieno[2,3-c
59 61 1 0 0 
SMALL
USER_CHARGES


@<TRIPOS>ATOM
  1 S        0.8460     0.1590     1.7670 S.3   1 <1>  -0.0800 
  2 C        1.7060     1.5150     1.0450 C.2   1 <1>   0.1040 
  3 C       -0.6780     0.7290     1.1310 C.2   1 <1>  -0.1400 
  4 N        3.0780     1.6310     1.2180 N.am  1 <1>  -0.4940 
  5 C        0.8440     2.3400     0.3620 C.2   1 <1>  -0.0860 
  6 C       -0.5160     1.8490     0.4200 C.2   1 <1>  -0.1810 
  7 C       -1.9700    -0.0140     1.3940 C.3   1 <1>   0.3000 
  8 C        4.0210     0.8590     1.8430 C.2   1 <1>   0.5690 
  9 C        1.2360     3.5480    -0.3210 C.2   1 <1>   0.8060 
 10 C       -1.7540     2.4650    -0.2170 C.3   1 <1>   0.0210 
 11 O       -3.0560     0.7750     0.9660 O.3   1 <1>  -0.5600 
 12 O        3.7960    -0.1780     2.4110 O.2   1 <1>  -0.5700 
 13 C        5.4500     1.3490     1.7760 C.3   1 <1>  -0.0990 
 14 O        0.4660     4.3050    -0.8810 O.2   1 <1>  -0.5700 
 15 O        2.5420     3.8580    -0.3400 O.3   1 <1>  -0.4300 
 16 C       -2.9420     1.4640    -0.2540 C.3   1 <1>   0.2800 
 17 C        6.2380     0.6050     0.6810 C.3   1 <1>  -0.0990 
 18 C        3.0280     5.0160    -0.9800 C.3   1 <1>   0.1200 
 19 C       -2.8020     0.4410    -1.3930 C.3   1 <1>  -0.2400 
 20 C       -4.2630     2.2160    -0.4210 C.3   1 <1>  -0.2400 
 21 C        7.6440     1.1470     0.4590 C.2   1 <1>   0.5690 
 22 C        4.5440     5.0440    -0.8050 C.3   1 <1>  -0.2400 
 23 O        7.8830     2.2670     0.8480 O.2   1 <1>  -0.5700 
 24 N        8.5920     0.3880    -0.1800 N.am  1 <1>  -0.6600 
 25 C        8.3570    -0.9360    -0.8240 C.3   1 <1>   0.1400 
 26 C       10.0110     0.8360    -0.2570 C.3   1 <1>   0.1400 
 27 C        9.2230    -1.9960    -0.1350 C.3   1 <1>  -0.1600 
 28 C       10.9100    -0.2010     0.4260 C.3   1 <1>  -0.1600 
 29 C       10.7080    -1.6070    -0.1590 C.3   1 <1>  -0.1600 
 30 H        3.4680     2.4660     0.7760 H     1 <1>   0.3700 
 31 H       -2.0930    -0.1960     2.4460 H     1 <1>   0.0800 
 32 H       -1.9900    -0.9500     0.8660 H     1 <1>   0.0800 
 33 H       -1.5400     2.7790    -1.2220 H     1 <1>   0.0800 
 34 H       -2.0290     3.3390     0.3460 H     1 <1>   0.0800 
 35 H        5.9200     1.1850     2.7300 H     1 <1>   0.0800 
 36 H        5.4560     2.4070     1.5860 H     1 <1>   0.0800 
 37 H        5.7070     0.6680    -0.2510 H     1 <1>   0.0800 
 38 H        6.2990    -0.4280     0.9710 H     1 <1>   0.0800 
 39 H        2.5690     5.8790    -0.5240 H     1 <1>   0.0800 
 40 H        2.7590     4.9720    -2.0220 H     1 <1>   0.0800 
 41 H       -1.8510    -0.0570    -1.3560 H     1 <1>   0.0800 
 42 H       -2.8700     0.9400    -2.3430 H     1 <1>   0.0800 
 43 H       -3.5900    -0.2880    -1.3370 H     1 <1>   0.0800 
 44 H       -4.4090     2.8950     0.4000 H     1 <1>   0.0800 
 45 H       -5.0840     1.5230    -0.4480 H     1 <1>   0.0800 
 46 H       -4.2600     2.7810    -1.3350 H     1 <1>   0.0800 
 47 H        4.8010     5.0860     0.2390 H     1 <1>   0.0800 
 48 H        4.9460     5.9170    -1.2870 H     1 <1>   0.0800 
 49 H        4.9900     4.1750    -1.2530 H     1 <1>   0.0800 
 50 H        8.6330    -0.8680    -1.8630 H     1 <1>   0.0800 
 51 H        7.3230    -1.2220    -0.7810 H     1 <1>   0.0800 
 52 H       10.1390     1.7920     0.2220 H     1 <1>   0.0800 
 53 H       10.2900     0.9430    -1.2910 H     1 <1>   0.0800 
 54 H        9.0900    -2.9420    -0.6290 H     1 <1>   0.0800 
 55 H        8.8920    -2.1070     0.8830 H     1 <1>   0.0800 
 56 H       10.6850    -0.2100     1.4780 H     1 <1>   0.0800 
 57 H       11.9390     0.0930     0.3150 H     1 <1>   0.0800 
 58 H       11.0650    -1.6230    -1.1750 H     1 <1>   0.0800 
 59 H       11.2820    -2.3220     0.4060 H     1 <1>   0.0800 
@<TRIPOS>BOND
  1   1   2  1   
  2   1   3  1   
  3   2   4  1   
  4   2   5  2   
  5   3   6  2   
  6   3   7  1   
  7   4   8  am  
  8   4  30  1   
  9   5   6  1   
 10   5   9  1   
 11   6  10  1   
 12   7  11  1   
 13   7  31  1   
 14   7  32  1   
 15   8  12  2   
 16   8  13  1   
 17   9  14  2   
 18   9  15  1   
 19  10  16  1   
 20  10  33  1   
 21  10  34  1   
 22  11  16  1   
 23  13  17  1   
 24  13  35  1   
 25  13  36  1   
 26  15  18  1   
 27  16  19  1   
 28  16  20  1   
 29  17  21  1   
 30  17  37  1   
 31  17  38  1   
 32  18  22  1   
 33  18  39  1   
 34  18  40  1   
 35  19  41  1   
 36  19  42  1   
 37  19  43  1   
 38  20  44  1   
 39  20  45  1   
 40  20  46  1   
 41  21  23  2   
 42  21  24  am  
 43  22  47  1   
 44  22  48  1   
 45  22  49  1   
 46  24  25  1   
 47  24  26  1   
 48  25  27  1   
 49  25  50  1   
 50  25  51  1   
 51  26  28  1   
 52  26  52  1   
 53  26  53  1   
 54  27  29  1   
 55  27  54  1   
 56  27  55  1   
 57  28  29  1   
 58  28  56  1   
 59  28  57  1   
 60  29  58  1   
 61  29  59  1   
@<TRIPOS>SUBSTRUCTURE
  1 ****   4 GROUP 4 **** **** 0

# MOE 2024.06 (io_trps.svl 2023.06)
