@<TRIPOS>MOLECULE
1-Cyclopropyl-4-hydroxy-2-oxo-1,2,5,6,7,8-hexahydro-quinoline-3-carboxylic acid
45 48 1 0 0 
SMALL
USER_CHARGES


@<TRIPOS>ATOM
  1 O       -0.2790     0.3730    -0.7820 O.3   1 <1>  -0.8500 
  2 C       -1.2900     0.9790    -0.4130 C.2   1 <1>  -0.0500 
  3 N       -2.4570     0.2410    -0.2140 N.pl3 1 <1>  -0.3690 
  4 C       -1.2860     2.3880    -0.2180 C.2   1 <1>   0.0290 
  5 C       -3.6820     0.8930    -0.1020 C.2   1 <1>  -0.0380 
  6 C       -2.3540    -1.2490    -0.2010 C.3   1 <1>   0.0690 
  7 C       -2.5050     3.0000     0.1460 C.2   1 <1>   0.5410 
  8 C       -0.0990     3.1540    -0.3760 C.2   1 <1>   0.6160 
  9 C       -3.7200     2.2360     0.0980 C.2   1 <1>  -0.1240 
 10 C       -4.9580     0.0590    -0.2340 C.3   1 <1>  -0.0220 
 11 C       -2.8770    -2.0320     0.9700 C.3   1 <1>  -0.2000 
 12 C       -1.4070    -1.9060     0.7590 C.3   1 <1>  -0.2000 
 13 O       -2.5870     4.1790     0.5320 O.2   1 <1>  -0.5700 
 14 O       -0.0990     4.3540    -0.6610 O.2   1 <1>  -0.5700 
 15 N        1.1280     2.5480    -0.2400 N.am  1 <1>  -0.5470 
 16 C       -5.0370     3.0030     0.2580 C.3   1 <1>  -0.0220 
 17 C       -6.1980     0.9130    -0.5210 C.3   1 <1>  -0.1600 
 18 C        2.4230     3.0130    -0.1600 C.ar  1 <1>   0.4270 
 19 C       -6.2560     2.0930     0.4480 C.3   1 <1>  -0.1600 
 20 N        3.3620     2.1130    -0.4260 N.ar  1 <1>  -0.6200 
 21 C        2.7280     4.3250     0.2030 C.ar  1 <1>  -0.1500 
 22 C        4.6140     2.5270    -0.3490 C.ar  1 <1>   0.1600 
 23 C        4.0360     4.7440     0.2810 C.ar  1 <1>  -0.1500 
 24 C        5.0110     3.8110    -0.0070 C.ar  1 <1>  -0.1430 
 25 C        6.4780     4.2000     0.0550 C.3   1 <1>  -0.0970 
 26 H       -2.3710    -1.6530    -1.1970 H     1 <1>   0.1000 
 27 H       -5.1130    -0.4830     0.6800 H     1 <1>   0.0800 
 28 H       -4.8430    -0.6500    -1.0340 H     1 <1>   0.0800 
 29 H       -3.3380    -2.9850     0.7900 H     1 <1>   0.1000 
 30 H       -3.2980    -1.5070     1.8070 H     1 <1>   0.1000 
 31 H       -0.8120    -1.2370     1.3560 H     1 <1>   0.1000 
 32 H       -0.8400    -2.7380     0.3880 H     1 <1>   0.1000 
 33 H        1.0110     1.5260    -0.3920 H     1 <1>   0.3700 
 34 H       -5.1760     3.6090    -0.6210 H     1 <1>   0.0800 
 35 H       -4.9750     3.6660     1.1030 H     1 <1>   0.0800 
 36 H       -7.0820     0.3080    -0.4240 H     1 <1>   0.0800 
 37 H       -6.1490     1.2800    -1.5320 H     1 <1>   0.0800 
 38 H       -7.1570     2.6600     0.2900 H     1 <1>   0.0800 
 39 H       -6.2660     1.7220     1.4590 H     1 <1>   0.0800 
 40 H        1.9340     5.0110     0.4260 H     1 <1>   0.1500 
 41 H        5.3670     1.7930    -0.5720 H     1 <1>   0.1500 
 42 H        4.2810     5.7540     0.5550 H     1 <1>   0.1500 
 43 H        7.1080     3.3690    -0.2050 H     1 <1>   0.0800 
 44 H        6.7280     4.5230     1.0500 H     1 <1>   0.0800 
 45 H        6.6710     5.0060    -0.6300 H     1 <1>   0.0800 
@<TRIPOS>BOND
  1   1   2  1   
  2   2   3  1   
  3   2   4  2   
  4   3   5  1   
  5   3   6  1   
  6   4   7  1   
  7   4   8  1   
  8   5   9  2   
  9   5  10  1   
 10   6  11  1   
 11   6  12  1   
 12   6  26  1   
 13   7   9  1   
 14   7  13  2   
 15   8  14  2   
 16   8  15  am  
 17   9  16  1   
 18  10  17  1   
 19  10  27  1   
 20  10  28  1   
 21  11  12  1   
 22  11  29  1   
 23  11  30  1   
 24  12  31  1   
 25  12  32  1   
 26  15  18  1   
 27  15  33  1   
 28  16  19  1   
 29  16  34  1   
 30  16  35  1   
 31  17  19  1   
 32  17  36  1   
 33  17  37  1   
 34  18  20  ar  
 35  18  21  ar  
 36  19  38  1   
 37  19  39  1   
 38  20  22  ar  
 39  21  23  ar  
 40  21  40  1   
 41  22  24  ar  
 42  22  41  1   
 43  23  24  ar  
 44  23  42  1   
 45  24  25  1   
 46  25  43  1   
 47  25  44  1   
 48  25  45  1   
@<TRIPOS>SUBSTRUCTURE
  1 ****   4 GROUP 4 **** **** 0

# MOE 2024.06 (io_trps.svl 2023.06)
