@<TRIPOS>MOLECULE
8-(2,4-Dimethoxy-phenyl)-1,6-dimethyl-5,6,7,8-tetrahydro-1H-1,3,4b,8,9-pentaaza-
49 52 1 0 0 
SMALL
USER_CHARGES


@<TRIPOS>ATOM
  1 O        1.7400    -0.3970     2.3990 O.2   1 <1>  -0.5750 
  2 C        2.5140     0.3870     1.9020 C.2   1 <1>   0.6860 
  3 N        3.7850     0.0120     1.4890 N.am  1 <1>  -0.4420 
  4 N        2.1160     1.6840     1.7470 N.am  1 <1>  -0.4950 
  5 C        4.5980     0.9910     0.9380 C.2   1 <1>   0.4200 
  6 C        4.2670    -1.3920     1.6330 C.3   1 <1>   0.0520 
  7 C        2.9030     2.6620     1.2080 C.2   1 <1>   0.6990 
  8 N        5.8730     0.8620     0.4810 N.pl3 1 <1>  -0.7040 
  9 C        4.2170     2.2820     0.7850 C.2   1 <1>   0.2700 
 10 O        2.4660     3.7920     1.1140 O.2   1 <1>  -0.5750 
 11 C        6.2870     2.0560     0.0620 C.cat 1 <1>   1.0690 
 12 N        5.3110     2.9460     0.2160 N.pl3 1 <1>  -0.7670 
 13 N        7.4920     2.3650    -0.4540 N.pl3 1 <1>  -0.5800 
 14 C        5.4160     4.3810    -0.1200 C.3   1 <1>   0.3480 
 15 C        8.5290     1.4230    -0.6300 C.ar  1 <1>   0.3050 
 16 C        7.8190     3.7970    -0.7100 C.3   1 <1>   0.1600 
 17 C        6.5620     4.5860    -1.1260 C.3   1 <1>  -0.0880 
 18 C        9.0560     0.6850     0.4410 C.ar  1 <1>   0.0750 
 19 C        9.0410     1.2160    -1.9040 C.ar  1 <1>  -0.1580 
 20 C        6.8910     6.0780    -1.2850 C.3   1 <1>  -0.2470 
 21 O        8.5260     0.8920     1.6830 O.3   1 <1>  -0.3690 
 22 C       10.0790    -0.2320     0.2210 C.ar  1 <1>  -0.1580 
 23 C       10.0580     0.3040    -2.1170 C.ar  1 <1>  -0.1580 
 24 C        9.2520     0.5490     2.8470 C.3   1 <1>   0.0320 
 25 C       10.5820    -0.4210    -1.0610 C.ar  1 <1>   0.0750 
 26 O       11.5770    -1.2930    -1.3640 O.3   1 <1>  -0.3690 
 27 C       12.2380    -2.0360    -0.3630 C.3   1 <1>   0.0320 
 28 H        1.1780     1.9270     2.0600 H     1 <1>   0.3640 
 29 H        3.4790    -2.0340     1.9900 H     1 <1>   0.0720 
 30 H        5.0800    -1.4280     2.3370 H     1 <1>   0.0720 
 31 H        4.6000    -1.7650     0.6800 H     1 <1>   0.0720 
 32 H        6.4970     0.0600     0.5500 H     1 <1>   0.4450 
 33 H        5.6080     4.9380     0.7820 H     1 <1>   0.0720 
 34 H        4.4880     4.7300    -0.5430 H     1 <1>   0.0720 
 35 H        8.5600     3.8720    -1.4890 H     1 <1>   0.0720 
 36 H        8.2380     4.2200     0.1870 H     1 <1>   0.0720 
 37 H        6.2380     4.2230    -2.0860 H     1 <1>   0.0720 
 38 H        8.6480     1.7670    -2.7390 H     1 <1>   0.1420 
 39 H        7.2310     6.5020    -0.3550 H     1 <1>   0.0720 
 40 H        6.0210     6.6230    -1.6100 H     1 <1>   0.0720 
 41 H        7.6640     6.2150    -2.0220 H     1 <1>   0.0720 
 42 H       10.4810    -0.8010     1.0350 H     1 <1>   0.1420 
 43 H       10.4550     0.1460    -3.1050 H     1 <1>   0.1420 
 44 H        8.7370     0.9560     3.6990 H     1 <1>   0.0720 
 45 H       10.2400     0.9730     2.7830 H     1 <1>   0.0720 
 46 H        9.3010    -0.5220     2.9320 H     1 <1>   0.0720 
 47 H       13.0010    -2.6280    -0.8360 H     1 <1>   0.0720 
 48 H       11.5260    -2.6800     0.1220 H     1 <1>   0.0720 
 49 H       12.6870    -1.3560     0.3390 H     1 <1>   0.0720 
@<TRIPOS>BOND
  1   1   2  2   
  2   2   3  am  
  3   2   4  am  
  4   3   5  1   
  5   3   6  1   
  6   4   7  am  
  7   4  28  1   
  8   5   8  1   
  9   5   9  2   
 10   6  29  1   
 11   6  30  1   
 12   6  31  1   
 13   7   9  1   
 14   7  10  2   
 15   8  11  ar  
 16   8  32  1   
 17   9  12  1   
 18  11  12  ar  
 19  11  13  ar  
 20  12  14  1   
 21  13  15  1   
 22  13  16  1   
 23  14  17  1   
 24  14  33  1   
 25  14  34  1   
 26  15  18  ar  
 27  15  19  ar  
 28  16  17  1   
 29  16  35  1   
 30  16  36  1   
 31  17  20  1   
 32  17  37  1   
 33  18  21  1   
 34  18  22  ar  
 35  19  23  ar  
 36  19  38  1   
 37  20  39  1   
 38  20  40  1   
 39  20  41  1   
 40  21  24  1   
 41  22  25  ar  
 42  22  42  1   
 43  23  25  ar  
 44  23  43  1   
 45  24  44  1   
 46  24  45  1   
 47  24  46  1   
 48  25  26  1   
 49  26  27  1   
 50  27  47  1   
 51  27  48  1   
 52  27  49  1   
@<TRIPOS>SUBSTRUCTURE
  1 ****  11 GROUP 4 **** **** 0

# MOE 2024.06 (io_trps.svl 2023.06)
