@<TRIPOS>MOLECULE
4-(3-Methoxy-phenyl)-2-oxo-6-pyrrolidin-1-ylmethyl-1,2,3,4-tetrahydro-pyrimidine
52 54 1 0 0 
SMALL
USER_CHARGES


@<TRIPOS>ATOM
  1 O       -0.1330     0.9850    -0.2300 O.2   1 <1>  -0.5700 
  2 C       -1.2740     1.2980     0.0000 C.2   1 <1>   0.6900 
  3 N       -2.2870     0.6380    -0.6120 N.am  1 <1>  -0.5390 
  4 N       -1.5720     2.3000     0.8400 N.am  1 <1>  -0.7300 
  5 C       -3.6320     0.9180    -0.4110 C.2   1 <1>  -0.0290 
  6 C       -2.9170     2.8930     0.9560 C.3   1 <1>   0.5020 
  7 C       -3.9990     1.9750     0.3730 C.2   1 <1>  -0.1240 
  8 C       -4.5950    -0.0540    -1.0970 C.3   1 <1>   0.4810 
  9 C       -2.9190     4.2390     0.2350 C.ar  1 <1>  -0.1440 
 10 C       -5.3160     2.3800     0.7630 C.2   1 <1>   0.7060 
 11 N       -4.6660    -1.3070    -0.2950 N.4   1 <1>  -0.9590 
 12 C       -3.4050     5.3650     0.8820 C.ar  1 <1>  -0.1500 
 13 C       -2.4530     4.3660    -1.0690 C.ar  1 <1>  -0.1500 
 14 O       -5.5370     3.1380     1.6830 O.2   1 <1>  -0.5700 
 15 O       -6.3600     1.8500     0.1190 O.3   1 <1>  -0.4300 
 16 C       -5.3530    -2.4190    -0.9900 C.3   1 <1>   0.3430 
 17 C       -5.3720    -1.1320     0.9980 C.3   1 <1>   0.3430 
 18 C       -3.4300     6.5990     0.2520 C.ar  1 <1>   0.0830 
 19 C       -2.4730     5.5940    -1.7070 C.ar  1 <1>  -0.1500 
 20 C       -7.6840     2.2510     0.4110 C.3   1 <1>   0.1200 
 21 C       -5.7380    -3.3790     0.1270 C.3   1 <1>  -0.1600 
 22 C       -5.7590    -2.5450     1.4110 C.3   1 <1>  -0.1600 
 23 O       -3.9250     7.6380     0.9690 O.3   1 <1>  -0.3630 
 24 C       -2.9590     6.7110    -1.0520 C.ar  1 <1>  -0.1500 
 25 C       -8.6280     1.4360    -0.4670 C.3   1 <1>  -0.2400 
 26 C       -4.0240     8.9300     0.4140 C.3   1 <1>   0.0400 
 27 H       -1.9300    -0.0570    -1.2720 H     1 <1>   0.3700 
 28 H       -0.7970     2.8950     1.1330 H     1 <1>   0.3700 
 29 H       -3.1040     3.0490     2.0060 H     1 <1>   0.0800 
 30 H       -4.2210    -0.2690    -2.0840 H     1 <1>   0.0800 
 31 H       -5.5760     0.3690    -1.2100 H     1 <1>   0.0800 
 32 H       -3.7050    -1.6010    -0.0750 H     1 <1>   0.4500 
 33 H       -3.7820     5.3060     1.8890 H     1 <1>   0.1500 
 34 H       -2.0660     3.5130    -1.5990 H     1 <1>   0.1500 
 35 H       -4.7170    -2.8930    -1.7220 H     1 <1>   0.0800 
 36 H       -6.2470    -2.0550    -1.4720 H     1 <1>   0.0800 
 37 H       -6.2640    -0.5430     0.8520 H     1 <1>   0.0800 
 38 H       -4.7450    -0.6560     1.7360 H     1 <1>   0.0800 
 39 H       -2.1060     5.6820    -2.7150 H     1 <1>   0.1500 
 40 H       -7.7750     3.3050     0.2010 H     1 <1>   0.0800 
 41 H       -7.8800     2.0760     1.4560 H     1 <1>   0.0800 
 42 H       -5.0050    -4.1650     0.2020 H     1 <1>   0.0800 
 43 H       -6.6960    -3.8270    -0.0750 H     1 <1>   0.0800 
 44 H       -6.7310    -2.5470     1.8740 H     1 <1>   0.0800 
 45 H       -5.0440    -2.9270     2.1200 H     1 <1>   0.0800 
 46 H       -2.9640     7.6520    -1.5680 H     1 <1>   0.1500 
 47 H       -8.4220     1.6180    -1.5070 H     1 <1>   0.0800 
 48 H       -9.6430     1.7340    -0.2700 H     1 <1>   0.0800 
 49 H       -8.5360     0.3880    -0.2520 H     1 <1>   0.0800 
 50 H       -4.4500     9.5800     1.1560 H     1 <1>   0.0800 
 51 H       -4.6650     8.8910    -0.4490 H     1 <1>   0.0800 
 52 H       -3.0390     9.2730     0.1500 H     1 <1>   0.0800 
@<TRIPOS>BOND
  1   1   2  2   
  2   2   3  am  
  3   2   4  am  
  4   3   5  1   
  5   3  27  1   
  6   4   6  1   
  7   4  28  1   
  8   5   7  2   
  9   5   8  1   
 10   6   7  1   
 11   6   9  1   
 12   6  29  1   
 13   7  10  1   
 14   8  11  1   
 15   8  30  1   
 16   8  31  1   
 17   9  12  ar  
 18   9  13  ar  
 19  10  14  2   
 20  10  15  1   
 21  11  16  1   
 22  11  17  1   
 23  11  32  1   
 24  12  18  ar  
 25  12  33  1   
 26  13  19  ar  
 27  13  34  1   
 28  15  20  1   
 29  16  21  1   
 30  16  35  1   
 31  16  36  1   
 32  17  22  1   
 33  17  37  1   
 34  17  38  1   
 35  18  23  1   
 36  18  24  ar  
 37  19  24  ar  
 38  19  39  1   
 39  20  25  1   
 40  20  40  1   
 41  20  41  1   
 42  21  22  1   
 43  21  42  1   
 44  21  43  1   
 45  22  44  1   
 46  22  45  1   
 47  23  26  1   
 48  24  46  1   
 49  25  47  1   
 50  25  48  1   
 51  25  49  1   
 52  26  50  1   
 53  26  51  1   
 54  26  52  1   
@<TRIPOS>SUBSTRUCTURE
  1 ****   7 GROUP 4 **** **** 0

# MOE 2024.06 (io_trps.svl 2023.06)
