@<TRIPOS>MOLECULE
3-tert-Butyl-6-(3-chloro-phenyl)-[1,2,4]triazolo[3,4-b][1,3,4]thiadiazole
32 34 1 0 0 
SMALL
USER_CHARGES


@<TRIPOS>ATOM
  1 CL       0.0360     0.0810    -0.1550 Cl    1 <1>  -0.1770 
  2 C        1.1900    -1.2040     0.0840 C.ar  1 <1>   0.1770 
  3 C        2.5380    -0.9100     0.0820 C.ar  1 <1>  -0.1500 
  4 C        0.7350    -2.4940     0.2700 C.ar  1 <1>  -0.1500 
  5 C        3.4930    -1.9120     0.2700 C.ar  1 <1>   0.0860 
  6 C        1.6590    -3.5050     0.4590 C.ar  1 <1>  -0.1500 
  7 C        4.9020    -1.5700     0.2630 C.2   1 <1>   0.5050 
  8 C        3.0130    -3.2160     0.4580 C.ar  1 <1>  -0.1500 
  9 S        6.1090    -2.8660     0.5060 S.3   1 <1>  -0.1970 
 10 N        5.4390    -0.4140     0.0990 N.2   1 <1>  -0.6520 
 11 C        7.3800    -1.6790     0.3620 C.2   1 <1>   0.2430 
 12 N        6.8330    -0.4960     0.1580 N.pl3 1 <1>   0.5050 
 13 N        8.6620    -1.6920     0.4060 N.2   1 <1>  -0.3380 
 14 C        7.9230     0.2930     0.0710 C.2   1 <1>   0.0060 
 15 N        9.0130    -0.4070     0.2160 N.2   1 <1>  -0.3380 
 16 C        7.8460     1.8070    -0.1690 C.3   1 <1>   0.1800 
 17 C        7.0680     2.4840     0.9690 C.3   1 <1>  -0.2400 
 18 C        9.2540     2.4240    -0.2190 C.3   1 <1>  -0.2400 
 19 C        7.1500     2.0950    -1.5080 C.3   1 <1>  -0.2400 
 20 H        2.8460     0.1100    -0.0670 H     1 <1>   0.1500 
 21 H       -0.3220    -2.6970     0.2680 H     1 <1>   0.1500 
 22 H        1.3220    -4.5180     0.6060 H     1 <1>   0.1500 
 23 H        3.6980    -4.0320     0.6080 H     1 <1>   0.1500 
 24 H        7.5340     2.2670     1.9140 H     1 <1>   0.0800 
 25 H        6.0520     2.1330     1.0020 H     1 <1>   0.0800 
 26 H        7.0500     3.5500     0.8340 H     1 <1>   0.0800 
 27 H        9.8290     1.9790    -1.0130 H     1 <1>   0.0800 
 28 H        9.7720     2.2490     0.7070 H     1 <1>   0.0800 
 29 H        9.2050     3.4850    -0.3870 H     1 <1>   0.0800 
 30 H        7.6740     1.6050    -2.3100 H     1 <1>   0.0800 
 31 H        7.1340     3.1520    -1.7070 H     1 <1>   0.0800 
 32 H        6.1350     1.7410    -1.4980 H     1 <1>   0.0800 
@<TRIPOS>BOND
  1   1   2  1   
  2   2   3  ar  
  3   2   4  ar  
  4   3   5  ar  
  5   3  20  1   
  6   4   6  ar  
  7   4  21  1   
  8   5   7  1   
  9   5   8  ar  
 10   6   8  ar  
 11   6  22  1   
 12   7   9  1   
 13   7  10  2   
 14   8  23  1   
 15   9  11  1   
 16  10  12  1   
 17  11  12  1   
 18  11  13  2   
 19  12  14  1   
 20  13  15  1   
 21  14  15  2   
 22  14  16  1   
 23  16  17  1   
 24  16  18  1   
 25  16  19  1   
 26  17  24  1   
 27  17  25  1   
 28  17  26  1   
 29  18  27  1   
 30  18  28  1   
 31  18  29  1   
 32  19  30  1   
 33  19  31  1   
 34  19  32  1   
@<TRIPOS>SUBSTRUCTURE
  1 ****  10 GROUP 4 **** **** 0

# MOE 2024.06 (io_trps.svl 2023.06)
