@<TRIPOS>MOLECULE
1,6-Dimethyl-3-(2-oxo-propyl)-8-m-tolyl-5,6,7,8-tetrahydro-1H-1,3,4b,8,9-pentaaz
52 55 1 0 0 
SMALL
USER_CHARGES


@<TRIPOS>ATOM
  1 O        1.0800    -0.0370     1.6290 O.2   1 <1>  -0.5740 
  2 C        1.9790     0.7380     1.3730 C.2   1 <1>   0.6860 
  3 N        1.7310     2.1040     1.3810 N.am  1 <1>  -0.4250 
  4 N        3.2460     0.2600     1.0670 N.am  1 <1>  -0.4410 
  5 C        2.7370     3.0190     1.1190 C.2   1 <1>   0.6990 
  6 C        0.3190     2.5600     1.1820 C.3   1 <1>   0.1940 
  7 C        4.2160     1.1780     0.7120 C.2   1 <1>   0.4210 
  8 C        3.5200    -1.2070     1.0300 C.3   1 <1>   0.0520 
  9 O        2.5290     4.2170     1.2270 O.2   1 <1>  -0.5740 
 10 C        4.0160     2.5140     0.7270 C.2   1 <1>   0.2710 
 11 C       -0.0210     2.6080    -0.3080 C.2   1 <1>   0.4430 
 12 N        5.4920     0.9340     0.3010 N.pl3 1 <1>  -0.7040 
 13 N        5.2220     3.0930     0.3090 N.pl3 1 <1>  -0.7670 
 14 O        0.8150     2.4520    -1.1520 O.2   1 <1>  -0.5740 
 15 C       -1.4650     2.8670    -0.6730 C.3   1 <1>  -0.1860 
 16 C        6.0730     2.1080     0.0630 C.cat 1 <1>   1.0690 
 17 C        5.5140     4.5280     0.1130 C.3   1 <1>   0.3480 
 18 N        7.3310     2.3100    -0.3670 N.pl3 1 <1>  -0.5800 
 19 C        6.6880     4.6750    -0.8740 C.3   1 <1>  -0.0880 
 20 C        8.2300     1.2610    -0.5740 C.ar  1 <1>   0.3050 
 21 C        7.8360     3.7010    -0.5410 C.3   1 <1>   0.1610 
 22 C        7.2020     6.1220    -0.9030 C.3   1 <1>  -0.2470 
 23 C        8.7920     0.5970     0.5080 C.ar  1 <1>  -0.1570 
 24 C        8.5440     0.8490    -1.8620 C.ar  1 <1>  -0.1570 
 25 C        9.6440    -0.4760     0.3140 C.ar  1 <1>  -0.1510 
 26 C        9.3980    -0.2190    -2.0630 C.ar  1 <1>  -0.1570 
 27 C        9.9430    -0.8810    -0.9770 C.ar  1 <1>  -0.1570 
 28 C       10.2600    -1.2030     1.4970 C.3   1 <1>  -0.1040 
 29 H        0.1860     3.5390     1.6070 H     1 <1>   0.0720 
 30 H       -0.3610     1.8930     1.6820 H     1 <1>   0.0720 
 31 H        2.8350    -1.7350     1.6710 H     1 <1>   0.0720 
 32 H        4.5200    -1.4110     1.3690 H     1 <1>   0.0720 
 33 H        3.3990    -1.5720     0.0240 H     1 <1>   0.0720 
 34 H        5.9460     0.0350     0.1600 H     1 <1>   0.4450 
 35 H       -2.0910     2.0870    -0.2790 H     1 <1>   0.0720 
 36 H       -1.5710     2.8860    -1.7430 H     1 <1>   0.0720 
 37 H       -1.7820     3.8150    -0.2780 H     1 <1>   0.0720 
 38 H        5.7670     4.9680     1.0640 H     1 <1>   0.0720 
 39 H        4.6440     5.0330    -0.2740 H     1 <1>   0.0720 
 40 H        6.3250     4.4420    -1.8610 H     1 <1>   0.0720 
 41 H        8.5660     3.7240    -1.3330 H     1 <1>   0.0720 
 42 H        8.3240     4.0070     0.3700 H     1 <1>   0.0720 
 43 H        7.5850     6.4170     0.0580 H     1 <1>   0.0720 
 44 H        6.4090     6.7970    -1.1760 H     1 <1>   0.0720 
 45 H        7.9900     6.2260    -1.6300 H     1 <1>   0.0720 
 46 H        8.5690     0.9240     1.5080 H     1 <1>   0.1430 
 47 H        8.1210     1.3600    -2.7090 H     1 <1>   0.1430 
 48 H        9.6440    -0.5390    -3.0620 H     1 <1>   0.1430 
 49 H       10.6090    -1.7120    -1.1410 H     1 <1>   0.1430 
 50 H        9.6840    -1.0440     2.3900 H     1 <1>   0.0720 
 51 H       11.2600    -0.8430     1.6630 H     1 <1>   0.0720 
 52 H       10.3030    -2.2600     1.3050 H     1 <1>   0.0720 
@<TRIPOS>BOND
  1   1   2  2   
  2   2   3  am  
  3   2   4  am  
  4   3   5  am  
  5   3   6  1   
  6   4   7  1   
  7   4   8  1   
  8   5   9  2   
  9   5  10  1   
 10   6  11  1   
 11   6  29  1   
 12   6  30  1   
 13   7  10  2   
 14   7  12  1   
 15   8  31  1   
 16   8  32  1   
 17   8  33  1   
 18  10  13  1   
 19  11  14  2   
 20  11  15  1   
 21  12  16  ar  
 22  12  34  1   
 23  13  16  ar  
 24  13  17  1   
 25  15  35  1   
 26  15  36  1   
 27  15  37  1   
 28  16  18  ar  
 29  17  19  1   
 30  17  38  1   
 31  17  39  1   
 32  18  20  1   
 33  18  21  1   
 34  19  21  1   
 35  19  22  1   
 36  19  40  1   
 37  20  23  ar  
 38  20  24  ar  
 39  21  41  1   
 40  21  42  1   
 41  22  43  1   
 42  22  44  1   
 43  22  45  1   
 44  23  25  ar  
 45  23  46  1   
 46  24  26  ar  
 47  24  47  1   
 48  25  27  ar  
 49  25  28  1   
 50  26  27  ar  
 51  26  48  1   
 52  27  49  1   
 53  28  50  1   
 54  28  51  1   
 55  28  52  1   
@<TRIPOS>SUBSTRUCTURE
  1 ****  12 GROUP 4 **** **** 0

# MOE 2024.06 (io_trps.svl 2023.06)
