@<TRIPOS>MOLECULE
4-Pyrrolidin-1-yl-pentanoic acid
29 29 1 0 0 
SMALL
USER_CHARGES


@<TRIPOS>ATOM
  1 O       -0.1370     1.1480     0.2760 O.co2 1 <1>  -0.9000 
  2 C       -0.8470     1.4470    -0.6830 C.2   1 <1>   0.9060 
  3 O       -0.4270     1.9600    -1.7220 O.co2 1 <1>  -0.9000 
  4 C       -2.3350     1.2640    -0.5550 C.3   1 <1>  -0.2660 
  5 C       -2.9930     2.6220    -0.2640 C.3   1 <1>  -0.1600 
  6 C       -4.5170     2.5750    -0.3360 C.3   1 <1>   0.4230 
  7 N       -5.0100     3.9750    -0.4080 N.4   1 <1>  -0.9590 
  8 C       -5.1290     1.8110     0.8430 C.3   1 <1>  -0.2400 
  9 C       -4.7900     4.8060     0.8010 C.3   1 <1>   0.3430 
 10 C       -6.4360     4.1220    -0.7700 C.3   1 <1>   0.3430 
 11 C       -5.6950     6.0130     0.5880 C.3   1 <1>  -0.1600 
 12 C       -6.7630     5.5680    -0.4170 C.3   1 <1>  -0.1600 
 13 H       -2.5170     0.5600     0.2350 H     1 <1>   0.0800 
 14 H       -2.6890     0.8540    -1.4810 H     1 <1>   0.0800 
 15 H       -2.6260     3.3140    -1.0030 H     1 <1>   0.0800 
 16 H       -2.6600     2.9580     0.7030 H     1 <1>   0.0800 
 17 H       -4.7870     2.0700    -1.2500 H     1 <1>   0.0800 
 18 H       -4.4620     4.4170    -1.1580 H     1 <1>   0.4500 
 19 H       -4.7860     2.1980     1.7850 H     1 <1>   0.0800 
 20 H       -4.8230     0.7810     0.7920 H     1 <1>   0.0800 
 21 H       -6.2010     1.8270     0.8110 H     1 <1>   0.0800 
 22 H       -3.7550     5.0900     0.9080 H     1 <1>   0.0800 
 23 H       -5.1080     4.2710     1.6800 H     1 <1>   0.0800 
 24 H       -7.0390     3.4620    -0.1680 H     1 <1>   0.0800 
 25 H       -6.6070     3.9140    -1.8140 H     1 <1>   0.0800 
 26 H       -5.1190     6.8300     0.1890 H     1 <1>   0.0800 
 27 H       -6.1280     6.3250     1.5230 H     1 <1>   0.0800 
 28 H       -7.7540     5.6360    -0.0030 H     1 <1>   0.0800 
 29 H       -6.7210     6.1770    -1.3040 H     1 <1>   0.0800 
@<TRIPOS>BOND
  1   1   2  ar  
  2   2   3  ar  
  3   2   4  1   
  4   4   5  1   
  5   4  13  1   
  6   4  14  1   
  7   5   6  1   
  8   5  15  1   
  9   5  16  1   
 10   6   7  1   
 11   6   8  1   
 12   6  17  1   
 13   7   9  1   
 14   7  10  1   
 15   7  18  1   
 16   8  19  1   
 17   8  20  1   
 18   8  21  1   
 19   9  11  1   
 20   9  22  1   
 21   9  23  1   
 22  10  12  1   
 23  10  24  1   
 24  10  25  1   
 25  11  12  1   
 26  11  26  1   
 27  11  27  1   
 28  12  28  1   
 29  12  29  1   
@<TRIPOS>SUBSTRUCTURE
  1 ****   5 GROUP 4 **** **** 0

# MOE 2024.06 (io_trps.svl 2023.06)
