@<TRIPOS>MOLECULE
1-[4-(3,4,5-Trihydroxy-6-methyl-tetrahydro-pyran-2-ylamino)-phenyl]-ethanone
39 40 1 0 0 
SMALL
USER_CHARGES


@<TRIPOS>ATOM
  1 O       -0.0380    -0.0790     0.6030 O.2   1 <1>  -0.5700 
  2 C       -0.9720     0.4920     0.0980 C.2   1 <1>   0.4230 
  3 C       -2.3120    -0.0510     0.0630 C.ar  1 <1>   0.0860 
  4 C       -0.6730     1.8450    -0.5190 C.3   1 <1>  -0.1790 
  5 C       -3.3950     0.6090    -0.5320 C.ar  1 <1>  -0.1500 
  6 C       -2.5890    -1.2930     0.6440 C.ar  1 <1>  -0.1500 
  7 C       -4.6620     0.0600    -0.5470 C.ar  1 <1>  -0.1500 
  8 C       -3.8540    -1.8430     0.6310 C.ar  1 <1>  -0.1500 
  9 C       -4.9160    -1.1780     0.0280 C.ar  1 <1>   0.1000 
 10 N       -6.1970    -1.6950    -0.0080 N.pl3 1 <1>  -0.8690 
 11 C       -6.4400    -3.0880    -0.4010 C.3   1 <1>   0.5690 
 12 O       -7.5750    -2.9940    -1.2190 O.3   1 <1>  -0.5600 
 13 C       -6.6620    -4.0610     0.7940 C.3   1 <1>   0.2000 
 14 C       -8.8020    -2.9240    -0.5480 C.3   1 <1>   0.2000 
 15 O       -5.5220    -4.8130     1.0940 O.3   1 <1>  -0.6800 
 16 C       -7.8040    -5.0370     0.4810 C.3   1 <1>   0.2000 
 17 C       -9.1040    -4.2740     0.1480 C.3   1 <1>   0.2000 
 18 C       -9.8610    -2.5390    -1.5790 C.3   1 <1>  -0.2400 
 19 O       -8.0080    -5.8960     1.5600 O.3   1 <1>  -0.6800 
 20 O       -9.8320    -4.0290     1.3200 O.3   1 <1>  -0.6800 
 21 H       -0.8900     1.8250    -1.5710 H     1 <1>   0.0800 
 22 H        0.3670     2.0840    -0.3900 H     1 <1>   0.0800 
 23 H       -1.2600     2.6050    -0.0390 H     1 <1>   0.0800 
 24 H       -3.2540     1.5690    -0.9930 H     1 <1>   0.1500 
 25 H       -1.7870    -1.8340     1.1180 H     1 <1>   0.1500 
 26 H       -5.4710     0.5950    -1.0100 H     1 <1>   0.1500 
 27 H       -4.0190    -2.7930     1.1010 H     1 <1>   0.1500 
 28 H       -6.8520    -1.1320    -0.5520 H     1 <1>   0.4000 
 29 H       -5.6320    -3.4470    -1.0170 H     1 <1>   0.0800 
 30 H       -6.9110    -3.4840     1.6670 H     1 <1>   0.0800 
 31 H       -8.7270    -2.1440     0.1940 H     1 <1>   0.0800 
 32 H       -5.8080    -5.5600     1.6660 H     1 <1>   0.4000 
 33 H       -7.5180    -5.6320    -0.3700 H     1 <1>   0.0800 
 34 H       -9.7130    -4.8900    -0.4910 H     1 <1>   0.0800 
 35 H      -10.8230    -2.4480    -1.1080 H     1 <1>   0.0800 
 36 H       -9.9230    -3.2850    -2.3510 H     1 <1>   0.0800 
 37 H       -9.6120    -1.5920    -2.0220 H     1 <1>   0.0800 
 38 H       -8.7300    -5.4980     2.1000 H     1 <1>   0.4000 
 39 H      -10.6980    -3.6260     1.1090 H     1 <1>   0.4000 
@<TRIPOS>BOND
  1   1   2  2   
  2   2   3  1   
  3   2   4  1   
  4   3   5  ar  
  5   3   6  ar  
  6   4  21  1   
  7   4  22  1   
  8   4  23  1   
  9   5   7  ar  
 10   5  24  1   
 11   6   8  ar  
 12   6  25  1   
 13   7   9  ar  
 14   7  26  1   
 15   8   9  ar  
 16   8  27  1   
 17   9  10  1   
 18  10  11  1   
 19  10  28  1   
 20  11  12  1   
 21  11  13  1   
 22  11  29  1   
 23  12  14  1   
 24  13  15  1   
 25  13  16  1   
 26  13  30  1   
 27  14  17  1   
 28  14  18  1   
 29  14  31  1   
 30  15  32  1   
 31  16  17  1   
 32  16  19  1   
 33  16  33  1   
 34  17  20  1   
 35  17  34  1   
 36  18  35  1   
 37  18  36  1   
 38  18  37  1   
 39  19  38  1   
 40  20  39  1   
@<TRIPOS>SUBSTRUCTURE
  1 ****  10 GROUP 4 **** **** 0

# MOE 2024.06 (io_trps.svl 2023.06)
