@<TRIPOS>MOLECULE
2-(3-Ethoxy-propylamino)-6-methyl-10-oxo-10H-1,9,10a-triaza-anthracene-3-carboxy
54 56 1 0 0 
SMALL
USER_CHARGES


@<TRIPOS>ATOM
  1 O        0.0980    -0.2960    -0.1290 O.2   1 <1>  -0.5700 
  2 C        0.1430    -1.5050    -0.1090 C.2   1 <1>   0.8650 
  3 N       -1.0570    -2.2210     0.0580 N.pl3 1 <1>  -0.5760 
  4 C        1.3900    -2.1870    -0.2430 C.ar  1 <1>   0.0860 
  5 C       -1.0320    -3.5730     0.1130 C.cat 1 <1>   0.7390 
  6 C       -2.2650    -1.5670     0.1690 C.2   1 <1>   0.1910 
  7 C        1.3440    -3.5740    -0.1760 C.ar  1 <1>   0.6590 
  8 C        2.6310    -1.5930    -0.4350 C.ar  1 <1>  -0.1500 
  9 N        0.1500    -4.1970     0.0020 N.pl3 1 <1>  -0.6530 
 10 C       -2.2230    -4.2910     0.2820 C.2   1 <1>  -0.1800 
 11 C       -3.4410    -2.2470     0.3340 C.2   1 <1>  -0.1380 
 12 N        2.3740    -4.3780    -0.2700 N.ar  1 <1>  -0.6200 
 13 C        3.7500    -2.4000    -0.5480 C.ar  1 <1>   0.0860 
 14 C       -3.4250    -3.6450     0.3930 C.2   1 <1>  -0.1500 
 15 C       -4.7750    -1.5280     0.4570 C.3   1 <1>  -0.1020 
 16 C        3.5570    -3.8010    -0.4590 C.ar  1 <1>   0.4100 
 17 C        5.0600    -1.8270    -0.7540 C.2   1 <1>   0.5440 
 18 N        4.6180    -4.6520    -0.5640 N.pl3 1 <1>  -0.8690 
 19 O        5.8460    -2.3310    -1.5340 O.2   1 <1>  -0.5700 
 20 N        5.4370    -0.6910    -0.0890 N.am  1 <1>  -0.7300 
 21 C        4.6190    -6.1290    -0.5220 C.3   1 <1>   0.2090 
 22 C        6.7470    -0.0210    -0.2280 C.3   1 <1>   0.1400 
 23 C        6.0340    -6.6080    -0.2050 C.3   1 <1>  -0.1600 
 24 C        7.2500     0.3560     1.1600 C.3   1 <1>  -0.2400 
 25 C        6.1030    -8.1340    -0.1640 C.3   1 <1>   0.1200 
 26 O        7.4140    -8.4910     0.1210 O.3   1 <1>  -0.5600 
 27 C        7.6290    -9.8600     0.1880 C.3   1 <1>   0.1200 
 28 C        9.1030   -10.0770     0.5070 C.3   1 <1>  -0.2400 
 29 H       -2.2740    -0.4860     0.1230 H     1 <1>   0.1500 
 30 H        2.7180    -0.5200    -0.5070 H     1 <1>   0.1500 
 31 H        0.2180    -5.2150     0.0360 H     1 <1>   0.4500 
 32 H       -2.1860    -5.3640     0.3240 H     1 <1>   0.1500 
 33 H       -4.3480    -4.1890     0.5240 H     1 <1>   0.1500 
 34 H       -5.4370    -1.8380    -0.3330 H     1 <1>   0.0800 
 35 H       -4.6510    -0.4610     0.3970 H     1 <1>   0.0800 
 36 H       -5.2360    -1.7620     1.4010 H     1 <1>   0.0800 
 37 H        5.4970    -4.2380    -0.9270 H     1 <1>   0.4000 
 38 H        4.8430    -0.3000     0.6420 H     1 <1>   0.3700 
 39 H        4.3040    -6.5110    -1.4780 H     1 <1>   0.0800 
 40 H        3.9350    -6.4720     0.2360 H     1 <1>   0.0800 
 41 H        6.6350     0.8610    -0.8360 H     1 <1>   0.0800 
 42 H        7.4550    -0.6770    -0.7080 H     1 <1>   0.0800 
 43 H        6.3350    -6.2200     0.7520 H     1 <1>   0.0800 
 44 H        6.7100    -6.2520    -0.9620 H     1 <1>   0.0800 
 45 H        6.5700     1.0380     1.6380 H     1 <1>   0.0800 
 46 H        8.2080     0.8360     1.0760 H     1 <1>   0.0800 
 47 H        7.3660    -0.5260     1.7650 H     1 <1>   0.0800 
 48 H        5.8330    -8.5540    -1.1180 H     1 <1>   0.0800 
 49 H        5.4640    -8.5250     0.6090 H     1 <1>   0.0800 
 50 H        7.3780   -10.3000    -0.7630 H     1 <1>   0.0800 
 51 H        7.0080   -10.2740     0.9650 H     1 <1>   0.0800 
 52 H        9.7130    -9.6480    -0.2660 H     1 <1>   0.0800 
 53 H        9.3130   -11.1290     0.5690 H     1 <1>   0.0800 
 54 H        9.3450    -9.6200     1.4500 H     1 <1>   0.0800 
@<TRIPOS>BOND
  1   1   2  2   
  2   2   3  1   
  3   2   4  1   
  4   3   5  ar  
  5   3   6  1   
  6   4   7  ar  
  7   4   8  ar  
  8   5   9  ar  
  9   5  10  1   
 10   6  11  2   
 11   6  29  1   
 12   7   9  1   
 13   7  12  ar  
 14   8  13  ar  
 15   8  30  1   
 16   9  31  1   
 17  10  14  2   
 18  10  32  1   
 19  11  14  1   
 20  11  15  1   
 21  12  16  ar  
 22  13  16  ar  
 23  13  17  1   
 24  14  33  1   
 25  15  34  1   
 26  15  35  1   
 27  15  36  1   
 28  16  18  1   
 29  17  19  2   
 30  17  20  am  
 31  18  21  1   
 32  18  37  1   
 33  20  22  1   
 34  20  38  1   
 35  21  23  1   
 36  21  39  1   
 37  21  40  1   
 38  22  24  1   
 39  22  41  1   
 40  22  42  1   
 41  23  25  1   
 42  23  43  1   
 43  23  44  1   
 44  24  45  1   
 45  24  46  1   
 46  24  47  1   
 47  25  26  1   
 48  25  48  1   
 49  25  49  1   
 50  26  27  1   
 51  27  28  1   
 52  27  50  1   
 53  27  51  1   
 54  28  52  1   
 55  28  53  1   
 56  28  54  1   
@<TRIPOS>SUBSTRUCTURE
  1 ****  12 GROUP 4 **** **** 0

# MOE 2024.06 (io_trps.svl 2023.06)
