@<TRIPOS>MOLECULE
2-(5-Cyclohexyl-4-methyl-4H-[1,2,4]triazol-3-ylsulfanyl)-1-(2-methyl-1H-indol-3-
50 53 1 0 0 
SMALL
USER_CHARGES


@<TRIPOS>ATOM
  1 S        0.5430    -0.3930     0.1110 S.3   1 <1>  -0.2860 
  2 C       -0.2000     1.0900    -0.5780 C.2   1 <1>   0.2420 
  3 C        1.5810    -1.0370    -1.2890 C.3   1 <1>   0.1310 
  4 N       -0.5350     1.2150    -1.8120 N.2   1 <1>  -0.3380 
  5 N       -0.4280     2.1770     0.1560 N.pl3 1 <1>   0.0480 
  6 C        3.0480    -1.0660    -0.8870 C.2   1 <1>   0.5950 
  7 N       -1.0220     2.4530    -1.9260 N.2   1 <1>  -0.3380 
  8 C       -0.9540     3.0130    -0.7600 C.2   1 <1>   0.0060 
  9 C       -0.0630     2.3440     1.5790 C.3   1 <1>   0.0160 
 10 O        3.6670    -2.0620    -1.1830 O.2   1 <1>  -0.5700 
 11 C        3.6240     0.0290    -0.1500 C.2   1 <1>  -0.0860 
 12 C       -1.4300     4.4460    -0.5230 C.3   1 <1>   0.1000 
 13 C        3.4040     1.4170    -0.4000 C.ar  1 <1>   0.0000 
 14 C        4.4690    -0.0230     0.9330 C.2   1 <1>  -0.3320 
 15 C       -0.2960     5.3760    -0.0510 C.3   1 <1>  -0.1600 
 16 C       -2.6490     4.4980     0.4160 C.3   1 <1>  -0.1600 
 17 C        4.0880     2.1240     0.5820 C.ar  1 <1>  -0.1520 
 18 C        2.7100     2.1400    -1.3790 C.ar  1 <1>  -0.1500 
 19 N        4.7450     1.2260     1.3770 N.pl3 1 <1>   0.0330 
 20 C        5.0540    -1.2460     1.6230 C.3   1 <1>  -0.0600 
 21 C       -0.7980     6.8090     0.1750 C.3   1 <1>  -0.1600 
 22 C       -3.1300     5.9390     0.6360 C.3   1 <1>  -0.1600 
 23 C        4.0520     3.5180     0.6430 C.ar  1 <1>  -0.1500 
 24 C        2.6740     3.5140    -1.3260 C.ar  1 <1>  -0.1500 
 25 C       -1.9910     6.8350     1.1390 C.3   1 <1>  -0.1600 
 26 C        3.3400     4.2060    -0.3110 C.ar  1 <1>  -0.1500 
 27 H        1.4280    -0.4170    -2.1500 H     1 <1>   0.0800 
 28 H        1.2330    -2.0310    -1.4970 H     1 <1>   0.0800 
 29 H       -0.3920     1.4850     2.1350 H     1 <1>   0.0800 
 30 H       -0.5190     3.2220     1.9890 H     1 <1>   0.0800 
 31 H        1.0070     2.4280     1.6550 H     1 <1>   0.0800 
 32 H       -1.7590     4.8210    -1.4770 H     1 <1>   0.0800 
 33 H        0.4790     5.3870    -0.7960 H     1 <1>   0.0800 
 34 H        0.1340     5.0130     0.8620 H     1 <1>   0.0800 
 35 H       -2.4090     4.0650     1.3680 H     1 <1>   0.0800 
 36 H       -3.4470     3.9170    -0.0140 H     1 <1>   0.0800 
 37 H        2.2020     1.6290    -2.1750 H     1 <1>   0.1500 
 38 H        5.3510     1.4750     2.1640 H     1 <1>   0.2700 
 39 H        4.6840    -2.1530     1.1820 H     1 <1>   0.0800 
 40 H        4.7910    -1.2470     2.6650 H     1 <1>   0.0800 
 41 H        6.1260    -1.2410     1.5330 H     1 <1>   0.0800 
 42 H       -1.0960     7.2350    -0.7690 H     1 <1>   0.0800 
 43 H        0.0000     7.4130     0.5710 H     1 <1>   0.0800 
 44 H       -3.9370     5.9450     1.3490 H     1 <1>   0.0800 
 45 H       -3.5100     6.3340    -0.2910 H     1 <1>   0.0800 
 46 H        4.5810     4.0390     1.4220 H     1 <1>   0.1500 
 47 H        2.1300     4.0630    -2.0760 H     1 <1>   0.1500 
 48 H       -2.3480     7.8460     1.2400 H     1 <1>   0.0800 
 49 H       -1.6740     6.5000     2.1120 H     1 <1>   0.0800 
 50 H        3.2960     5.2810    -0.2920 H     1 <1>   0.1500 
@<TRIPOS>BOND
  1   1   2  1   
  2   1   3  1   
  3   2   4  2   
  4   2   5  1   
  5   3   6  1   
  6   3  27  1   
  7   3  28  1   
  8   4   7  1   
  9   5   8  1   
 10   5   9  1   
 11   6  10  2   
 12   6  11  1   
 13   7   8  2   
 14   8  12  1   
 15   9  29  1   
 16   9  30  1   
 17   9  31  1   
 18  11  13  1   
 19  11  14  2   
 20  12  15  1   
 21  12  16  1   
 22  12  32  1   
 23  13  17  ar  
 24  13  18  ar  
 25  14  19  1   
 26  14  20  1   
 27  15  21  1   
 28  15  33  1   
 29  15  34  1   
 30  16  22  1   
 31  16  35  1   
 32  16  36  1   
 33  17  19  1   
 34  17  23  ar  
 35  18  24  ar  
 36  18  37  1   
 37  19  38  1   
 38  20  39  1   
 39  20  40  1   
 40  20  41  1   
 41  21  25  1   
 42  21  42  1   
 43  21  43  1   
 44  22  25  1   
 45  22  44  1   
 46  22  45  1   
 47  23  26  ar  
 48  23  46  1   
 49  24  26  ar  
 50  24  47  1   
 51  25  48  1   
 52  25  49  1   
 53  26  50  1   
@<TRIPOS>SUBSTRUCTURE
  1 ****   5 GROUP 4 **** **** 0

# MOE 2024.06 (io_trps.svl 2023.06)
