@<TRIPOS>MOLECULE
9-(3-Methoxy-phenyl)-5-morpholin-4-yl-1,2,3,4-tetrahydro-9H-7-thia-6,9,11-triaza
56 61 1 0 0 
SMALL
USER_CHARGES


@<TRIPOS>ATOM
  1 S       -0.5930    -1.0030     0.9260 S.3   1 <1>  -0.0800 
  2 C       -1.6790     0.2990     0.4300 C.ar  1 <1>   0.2970 
  3 C        0.8240    -0.0940     0.3950 C.2   1 <1>  -0.0450 
  4 N       -2.9750     0.1790     0.6060 N.ar  1 <1>  -0.5670 
  5 C       -0.9620     1.3570    -0.1220 C.ar  1 <1>   0.0000 
  6 C        2.1660    -0.5200     0.4830 C.2   1 <1>   0.7150 
  7 C        0.4610     1.1060    -0.1200 C.2   1 <1>   0.1250 
  8 C       -3.6670     1.2320     0.1950 C.ar  1 <1>   0.4100 
  9 C       -1.7130     2.4500    -0.5610 C.ar  1 <1>  -0.1430 
 10 O        2.4920    -1.6120     0.9300 O.2   1 <1>  -0.5700 
 11 N        3.1110     0.3810     0.0190 N.am  1 <1>  -0.2370 
 12 N        1.4350     1.9640    -0.5760 N.2   1 <1>  -0.5750 
 13 N       -5.0360     1.1330     0.3360 N.pl3 1 <1>  -0.8380 
 14 C       -3.0840     2.3820    -0.3760 C.ar  1 <1>  -0.1430 
 15 C       -1.0330     3.6600    -1.2000 C.3   1 <1>  -0.0170 
 16 C        4.4950     0.1170     0.0680 C.ar  1 <1>   0.1170 
 17 C        2.6630     1.5850    -0.4940 C.2   1 <1>   0.4500 
 18 C       -5.7910     0.5370    -0.8040 C.3   1 <1>   0.2090 
 19 C       -5.5890     0.7370     1.6680 C.3   1 <1>   0.2090 
 20 C       -3.9930     3.5440    -0.7850 C.3   1 <1>  -0.0160 
 21 C       -2.0130     4.6190    -1.8840 C.3   1 <1>  -0.1600 
 22 C        5.3380     0.9300     0.8150 C.ar  1 <1>  -0.1500 
 23 C        5.0450    -0.9460    -0.6400 C.ar  1 <1>  -0.1500 
 24 C       -6.0610    -0.9620    -0.5800 C.3   1 <1>   0.1200 
 25 C       -5.8960    -0.7720     1.7380 C.3   1 <1>   0.1200 
 26 C       -3.2340     4.8570    -0.9970 C.3   1 <1>  -0.1600 
 27 C        6.7020     0.7000     0.8520 C.ar  1 <1>   0.0830 
 28 C        6.4070    -1.1850    -0.6070 C.ar  1 <1>  -0.1500 
 29 O       -6.6860    -1.1780     0.6550 O.3   1 <1>  -0.5600 
 30 O        7.4400     1.5530     1.6040 O.3   1 <1>  -0.3620 
 31 C        7.2390    -0.3650     0.1350 C.ar  1 <1>  -0.1500 
 32 C        8.8320     1.3810     1.7550 C.3   1 <1>   0.0400 
 33 H       -0.3220     3.3310    -1.9360 H     1 <1>   0.0800 
 34 H       -0.4940     4.1890    -0.4330 H     1 <1>   0.0800 
 35 H        3.4310     2.2490    -0.8510 H     1 <1>   0.0600 
 36 H       -5.2300     0.6630    -1.7140 H     1 <1>   0.0800 
 37 H       -6.7270     1.0540    -0.9160 H     1 <1>   0.0800 
 38 H       -6.4930     1.2900     1.8510 H     1 <1>   0.0800 
 39 H       -4.8840     0.9920     2.4400 H     1 <1>   0.0800 
 40 H       -4.7430     3.7030    -0.0300 H     1 <1>   0.0800 
 41 H       -4.4970     3.2730    -1.6950 H     1 <1>   0.0800 
 42 H       -2.3300     4.1950    -2.8210 H     1 <1>   0.0800 
 43 H       -1.5180     5.5520    -2.0900 H     1 <1>   0.0800 
 44 H        4.9400     1.7520     1.3820 H     1 <1>   0.1500 
 45 H        4.4050    -1.5940    -1.2140 H     1 <1>   0.1500 
 46 H       -5.1370    -1.5130    -0.6010 H     1 <1>   0.0800 
 47 H       -6.7100    -1.3410    -1.3480 H     1 <1>   0.0800 
 48 H       -6.4330    -0.9980     2.6410 H     1 <1>   0.0800 
 49 H       -4.9810    -1.3380     1.7290 H     1 <1>   0.0800 
 50 H       -2.9170     5.2440    -0.0440 H     1 <1>   0.0800 
 51 H       -3.8870     5.5810    -1.4530 H     1 <1>   0.0800 
 52 H        6.8210    -2.0130    -1.1580 H     1 <1>   0.1500 
 53 H        8.2930    -0.5700     0.1430 H     1 <1>   0.1500 
 54 H        9.1960     2.1560     2.4050 H     1 <1>   0.0800 
 55 H        9.3010     1.4630     0.7900 H     1 <1>   0.0800 
 56 H        9.0190     0.4170     2.1940 H     1 <1>   0.0800 
@<TRIPOS>BOND
  1   1   2  1   
  2   1   3  1   
  3   2   4  ar  
  4   2   5  ar  
  5   3   6  1   
  6   3   7  2   
  7   4   8  ar  
  8   5   7  1   
  9   5   9  ar  
 10   6  10  2   
 11   6  11  am  
 12   7  12  1   
 13   8  13  1   
 14   8  14  ar  
 15   9  14  ar  
 16   9  15  1   
 17  11  16  1   
 18  11  17  1   
 19  12  17  2   
 20  13  18  1   
 21  13  19  1   
 22  14  20  1   
 23  15  21  1   
 24  15  33  1   
 25  15  34  1   
 26  16  22  ar  
 27  16  23  ar  
 28  17  35  1   
 29  18  24  1   
 30  18  36  1   
 31  18  37  1   
 32  19  25  1   
 33  19  38  1   
 34  19  39  1   
 35  20  26  1   
 36  20  40  1   
 37  20  41  1   
 38  21  26  1   
 39  21  42  1   
 40  21  43  1   
 41  22  27  ar  
 42  22  44  1   
 43  23  28  ar  
 44  23  45  1   
 45  24  29  1   
 46  24  46  1   
 47  24  47  1   
 48  25  29  1   
 49  25  48  1   
 50  25  49  1   
 51  26  50  1   
 52  26  51  1   
 53  27  30  1   
 54  27  31  ar  
 55  28  31  ar  
 56  28  52  1   
 57  30  32  1   
 58  31  53  1   
 59  32  54  1   
 60  32  55  1   
 61  32  56  1   
@<TRIPOS>SUBSTRUCTURE
  1 ****   7 GROUP 4 **** **** 0

# MOE 2024.06 (io_trps.svl 2023.06)
