@<TRIPOS>MOLECULE
3-(2-Hydroxy-phenyl)-4,5-dihydro-isoxazole-5-carboxylic acid cyclopentylamide
38 40 1 0 0 
SMALL
USER_CHARGES


@<TRIPOS>ATOM
  1 O       -0.1490     0.2380     2.3700 O.2   1 <1>  -0.5700 
  2 C       -0.4440    -0.8610     1.9600 C.2   1 <1>   0.5690 
  3 N        0.2570    -1.4710     0.9690 N.am  1 <1>  -0.7300 
  4 C       -1.6640    -1.5690     2.5500 C.3   1 <1>   0.2610 
  5 C        1.4280    -0.9400     0.2610 C.3   1 <1>   0.2200 
  6 O       -1.5370    -2.9700     2.3910 O.3   1 <1>  -0.2170 
  7 C       -2.9440    -1.2620     1.7850 C.3   1 <1>  -0.0990 
  8 C        1.1310    -0.9340    -1.2330 C.3   1 <1>  -0.1600 
  9 C        2.5690    -1.9410     0.3870 C.3   1 <1>  -0.1600 
 10 N       -2.3590    -3.4560     1.4860 N.2   1 <1>  -0.5130 
 11 C       -3.1850    -2.5760     1.0840 C.2   1 <1>   0.3030 
 12 C        1.3680    -2.3730    -1.7080 C.3   1 <1>  -0.1600 
 13 C        2.3000    -3.0160    -0.6720 C.3   1 <1>  -0.1600 
 14 C       -4.2110    -2.7740     0.0740 C.ar  1 <1>   0.0860 
 15 C       -5.2630    -1.8830    -0.2130 C.ar  1 <1>   0.0820 
 16 C       -4.1720    -3.9440    -0.6930 C.ar  1 <1>  -0.1500 
 17 O       -5.4270    -0.7340     0.4640 O.3   1 <1>  -0.5320 
 18 C       -6.1930    -2.1510    -1.2070 C.ar  1 <1>  -0.1500 
 19 C       -5.0970    -4.2150    -1.6830 C.ar  1 <1>  -0.1500 
 20 C       -6.1130    -3.3160    -1.9440 C.ar  1 <1>  -0.1500 
 21 H       -0.0270    -2.4190     0.7000 H     1 <1>   0.3700 
 22 H       -1.7560    -1.3530     3.5980 H     1 <1>   0.0800 
 23 H        1.6900     0.0370     0.6350 H     1 <1>   0.0800 
 24 H       -2.8090    -0.4520     1.0920 H     1 <1>   0.0800 
 25 H       -3.7410    -1.0400     2.4690 H     1 <1>   0.0800 
 26 H        1.8380    -0.2850    -1.7180 H     1 <1>   0.0800 
 27 H        0.1370    -0.5830    -1.4480 H     1 <1>   0.0800 
 28 H        2.6450    -2.3460     1.3820 H     1 <1>   0.0800 
 29 H        3.4900    -1.4390     0.1500 H     1 <1>   0.0800 
 30 H        1.8020    -2.3870    -2.6930 H     1 <1>   0.0800 
 31 H        0.4330    -2.9070    -1.7330 H     1 <1>   0.0800 
 32 H        1.8070    -3.8610    -0.2190 H     1 <1>   0.0800 
 33 H        3.2190    -3.3510    -1.1220 H     1 <1>   0.0800 
 34 H       -3.3920    -4.6640    -0.5110 H     1 <1>   0.1500 
 35 H       -6.2020    -0.2170     0.1760 H     1 <1>   0.4500 
 36 H       -6.9880    -1.4580    -1.4140 H     1 <1>   0.1500 
 37 H       -5.0270    -5.1280    -2.2500 H     1 <1>   0.1500 
 38 H       -6.8340    -3.5250    -2.7160 H     1 <1>   0.1500 
@<TRIPOS>BOND
  1   1   2  2   
  2   2   3  am  
  3   2   4  1   
  4   3   5  1   
  5   3  21  1   
  6   4   6  1   
  7   4   7  1   
  8   4  22  1   
  9   5   8  1   
 10   5   9  1   
 11   5  23  1   
 12   6  10  1   
 13   7  11  1   
 14   7  24  1   
 15   7  25  1   
 16   8  12  1   
 17   8  26  1   
 18   8  27  1   
 19   9  13  1   
 20   9  28  1   
 21   9  29  1   
 22  10  11  2   
 23  11  14  1   
 24  12  13  1   
 25  12  30  1   
 26  12  31  1   
 27  13  32  1   
 28  13  33  1   
 29  14  15  ar  
 30  14  16  ar  
 31  15  17  1   
 32  15  18  ar  
 33  16  19  ar  
 34  16  34  1   
 35  17  35  1   
 36  18  20  ar  
 37  18  36  1   
 38  19  20  ar  
 39  19  37  1   
 40  20  38  1   
@<TRIPOS>SUBSTRUCTURE
  1 ****  11 GROUP 4 **** **** 0

# MOE 2024.06 (io_trps.svl 2023.06)
