@<TRIPOS>MOLECULE
Pentanoic acid {1-[3-(2-chloro-phenyl)-[1,2,4]oxadiazol-5-yl]-ethyl}-amide
39 40 1 0 0 
SMALL
USER_CHARGES


@<TRIPOS>ATOM
  1 CL      -0.1620     0.1270     0.0450 Cl    1 <1>  -0.1770 
  2 C        0.8400    -0.8930    -0.9630 C.ar  1 <1>   0.1770 
  3 C        2.2060    -1.0220    -0.7110 C.ar  1 <1>   0.0540 
  4 C        0.2180    -1.5720    -1.9940 C.ar  1 <1>  -0.1500 
  5 C        2.8740    -0.3090     0.3520 C.2   1 <1>   0.4620 
  6 C        2.9240    -1.8880    -1.5380 C.ar  1 <1>  -0.1500 
  7 C        0.9560    -2.4160    -2.8050 C.ar  1 <1>  -0.1500 
  8 N        3.5990    -0.8480     1.2650 N.2   1 <1>  -0.4100 
  9 N        2.8280     1.0200     0.4710 N.2   1 <1>  -0.5650 
 10 C        2.3110    -2.5740    -2.5720 C.ar  1 <1>  -0.1500 
 11 O        4.0460     0.1010     2.0270 O.3   1 <1>  -0.0190 
 12 C        3.5490     1.1920     1.5030 C.2   1 <1>   0.2980 
 13 C        3.8700     2.5400     2.1520 C.3   1 <1>   0.4000 
 14 N        5.3200     2.8210     2.1270 N.am  1 <1>  -0.7300 
 15 C        3.4030     2.6020     3.6060 C.3   1 <1>  -0.2400 
 16 C        6.0630     3.2790     1.0970 C.2   1 <1>   0.5690 
 17 O        7.2500     3.4090     1.2510 O.2   1 <1>  -0.5700 
 18 C        5.4110     3.6220    -0.2390 C.3   1 <1>  -0.0990 
 19 C        6.3990     4.0860    -1.3240 C.3   1 <1>  -0.1600 
 20 C        5.6760     4.4020    -2.6400 C.3   1 <1>  -0.1600 
 21 C        6.6670     4.8620    -3.7130 C.3   1 <1>  -0.2400 
 22 H       -0.8370    -1.4420    -2.1570 H     1 <1>   0.1500 
 23 H        3.9790    -2.0200    -1.3640 H     1 <1>   0.1500 
 24 H        0.4790    -2.9480    -3.6110 H     1 <1>   0.1500 
 25 H        2.8890    -3.2330    -3.1970 H     1 <1>   0.1500 
 26 H        3.3560     3.3050     1.5960 H     1 <1>   0.0800 
 27 H        5.8430     2.5460     2.9580 H     1 <1>   0.3700 
 28 H        3.8970     1.8530     4.1970 H     1 <1>   0.0800 
 29 H        2.3430     2.4250     3.6500 H     1 <1>   0.0800 
 30 H        3.6010     3.5750     4.0180 H     1 <1>   0.0800 
 31 H        4.6890     4.3990    -0.0720 H     1 <1>   0.0800 
 32 H        4.8940     2.7500    -0.5960 H     1 <1>   0.0800 
 33 H        7.1300     3.3120    -1.4910 H     1 <1>   0.0800 
 34 H        6.9200     4.9620    -0.9780 H     1 <1>   0.0800 
 35 H        4.9470     5.1780    -2.4770 H     1 <1>   0.0800 
 36 H        5.1590     3.5250    -2.9900 H     1 <1>   0.0800 
 37 H        7.1810     5.7520    -3.3930 H     1 <1>   0.0800 
 38 H        6.1450     5.0790    -4.6280 H     1 <1>   0.0800 
 39 H        7.3940     4.0940    -3.9070 H     1 <1>   0.0800 
@<TRIPOS>BOND
  1   1   2  1   
  2   2   3  ar  
  3   2   4  ar  
  4   3   5  1   
  5   3   6  ar  
  6   4   7  ar  
  7   4  22  1   
  8   5   8  2   
  9   5   9  1   
 10   6  10  ar  
 11   6  23  1   
 12   7  10  ar  
 13   7  24  1   
 14   8  11  1   
 15   9  12  2   
 16  10  25  1   
 17  11  12  1   
 18  12  13  1   
 19  13  14  1   
 20  13  15  1   
 21  13  26  1   
 22  14  16  am  
 23  14  27  1   
 24  15  28  1   
 25  15  29  1   
 26  15  30  1   
 27  16  17  2   
 28  16  18  1   
 29  18  19  1   
 30  18  31  1   
 31  18  32  1   
 32  19  20  1   
 33  19  33  1   
 34  19  34  1   
 35  20  21  1   
 36  20  35  1   
 37  20  36  1   
 38  21  37  1   
 39  21  38  1   
 40  21  39  1   
@<TRIPOS>SUBSTRUCTURE
  1 ****   9 GROUP 4 **** **** 0

# MOE 2024.06 (io_trps.svl 2023.06)
