@<TRIPOS>MOLECULE
N-[2-(2-Acetylamino-ethyl)-1-methyl-1H-benzoimidazol-5-yl]-propionamide
41 42 1 0 0 
SMALL
USER_CHARGES


@<TRIPOS>ATOM
  1 O        0.0760    -0.0940     1.0170 O.2   1 <1>  -0.5700 
  2 C        0.3110     1.0600     0.7560 C.2   1 <1>   0.5690 
  3 N        1.5310     1.5260     0.3560 N.am  1 <1>  -0.5470 
  4 C       -0.8120     2.0730     0.8910 C.3   1 <1>  -0.0990 
  5 C        2.7590     0.8730     0.1330 C.ar  1 <1>   0.1170 
  6 C       -1.2640     2.6500    -0.4610 C.3   1 <1>  -0.2400 
  7 C        3.9140     1.6300     0.1090 C.ar  1 <1>  -0.1500 
  8 C        2.8510    -0.5150    -0.0820 C.ar  1 <1>  -0.1500 
  9 C        5.1430     1.0190    -0.1190 C.ar  1 <1>   0.2270 
 10 C        4.0620    -1.1290    -0.3080 C.ar  1 <1>  -0.1500 
 11 N        6.3820     1.5800    -0.1740 N.2   1 <1>  -0.5650 
 12 C        5.2160    -0.3440    -0.3270 C.ar  1 <1>  -0.1520 
 13 C        7.1690     0.5890    -0.4070 C.2   1 <1>   0.0060 
 14 N        6.5360    -0.6150    -0.5180 N.pl3 1 <1>   0.0480 
 15 C        8.6730     0.7390    -0.5340 C.3   1 <1>   0.0200 
 16 C        7.1260    -1.9500    -0.7520 C.3   1 <1>   0.0160 
 17 C        9.3500     0.3030     0.7670 C.3   1 <1>   0.1400 
 18 N       10.7590    -0.0830     0.5130 N.am  1 <1>  -0.7300 
 19 C       11.1330    -1.3040     0.0610 C.2   1 <1>   0.5690 
 20 O       10.3290    -2.1600    -0.2190 O.2   1 <1>  -0.5700 
 21 C       12.6030    -1.5850    -0.1050 C.3   1 <1>  -0.1790 
 22 H        1.5690     2.5330     0.2170 H     1 <1>   0.3700 
 23 H       -0.4880     2.8670     1.5380 H     1 <1>   0.0800 
 24 H       -1.6490     1.5900     1.3640 H     1 <1>   0.0800 
 25 H       -0.4580     3.1730    -0.9440 H     1 <1>   0.0800 
 26 H       -2.0810     3.3350    -0.3150 H     1 <1>   0.0800 
 27 H       -1.5960     1.8550    -1.1070 H     1 <1>   0.0800 
 28 H        3.9030     2.6900     0.2670 H     1 <1>   0.1500 
 29 H        1.9580    -1.1110    -0.0730 H     1 <1>   0.1500 
 30 H        4.1210    -2.1910    -0.4680 H     1 <1>   0.1500 
 31 H        8.9140     1.7660    -0.7360 H     1 <1>   0.0800 
 32 H        9.0170     0.1420    -1.3590 H     1 <1>   0.0800 
 33 H        6.3750    -2.6190    -1.1270 H     1 <1>   0.0800 
 34 H        7.5200    -2.3340     0.1710 H     1 <1>   0.0800 
 35 H        7.9200    -1.8780    -1.4720 H     1 <1>   0.0800 
 36 H        8.8320    -0.5480     1.1770 H     1 <1>   0.0800 
 37 H        9.3040     1.0970     1.4920 H     1 <1>   0.0800 
 38 H       11.4660     0.6270     0.7130 H     1 <1>   0.3700 
 39 H       13.0190    -0.9170    -0.8350 H     1 <1>   0.0800 
 40 H       12.7430    -2.5970    -0.4380 H     1 <1>   0.0800 
 41 H       13.1060    -1.4540     0.8340 H     1 <1>   0.0800 
@<TRIPOS>BOND
  1   1   2  2   
  2   2   3  am  
  3   2   4  1   
  4   3   5  1   
  5   3  22  1   
  6   4   6  1   
  7   4  23  1   
  8   4  24  1   
  9   5   7  ar  
 10   5   8  ar  
 11   6  25  1   
 12   6  26  1   
 13   6  27  1   
 14   7   9  ar  
 15   7  28  1   
 16   8  10  ar  
 17   8  29  1   
 18   9  11  1   
 19   9  12  ar  
 20  10  12  ar  
 21  10  30  1   
 22  11  13  2   
 23  12  14  1   
 24  13  14  1   
 25  13  15  1   
 26  14  16  1   
 27  15  17  1   
 28  15  31  1   
 29  15  32  1   
 30  16  33  1   
 31  16  34  1   
 32  16  35  1   
 33  17  18  1   
 34  17  36  1   
 35  17  37  1   
 36  18  19  am  
 37  18  38  1   
 38  19  20  2   
 39  19  21  1   
 40  21  39  1   
 41  21  40  1   
 42  21  41  1   
@<TRIPOS>SUBSTRUCTURE
  1 ****  12 GROUP 4 **** **** 0

# MOE 2024.06 (io_trps.svl 2023.06)
