@<TRIPOS>MOLECULE
4-[3-(4-Chloro-phenyl)-[1,2,4]oxadiazol-5-yl]-N-propyl-butyramide
39 40 1 0 0 
SMALL
USER_CHARGES


@<TRIPOS>ATOM
  1 CL      -0.0430     0.7460     1.4360 Cl    1 <1>  -0.1770 
  2 C        1.4350     1.4630     0.8510 C.ar  1 <1>   0.1770 
  3 C        1.6760     2.8040     1.0730 C.ar  1 <1>  -0.1500 
  4 C        2.3490     0.6810     0.1730 C.ar  1 <1>  -0.1500 
  5 C        2.8510     3.3670     0.6070 C.ar  1 <1>  -0.1500 
  6 C        3.5200     1.2550    -0.2890 C.ar  1 <1>  -0.1500 
  7 C        3.8030     2.6100    -0.0850 C.ar  1 <1>   0.0540 
  8 C        5.0380     3.2020    -0.5740 C.2   1 <1>   0.4620 
  9 N        5.9760     2.5750    -1.1920 N.2   1 <1>  -0.4100 
 10 N        5.3290     4.4970    -0.4190 N.2   1 <1>  -0.5650 
 11 O        6.9100     3.4290    -1.4670 O.3   1 <1>  -0.0190 
 12 C        6.4670     4.5560    -0.9740 C.2   1 <1>   0.2980 
 13 C        7.3280     5.8000    -1.1060 C.3   1 <1>   0.0200 
 14 C        8.3560     5.9450     0.0290 C.3   1 <1>  -0.1600 
 15 C        9.3220     4.7480     0.1420 C.3   1 <1>  -0.0990 
 16 C       10.4290     4.9310     1.1720 C.2   1 <1>   0.5690 
 17 O       10.5400     5.9740     1.7660 O.2   1 <1>  -0.5700 
 18 N       11.3050     3.9320     1.4220 N.am  1 <1>  -0.7300 
 19 C       11.3840     2.5790     0.8300 C.3   1 <1>   0.1400 
 20 C       12.6370     2.4900    -0.0400 C.3   1 <1>  -0.1600 
 21 C       12.7670     1.1080    -0.6890 C.3   1 <1>  -0.2400 
 22 H        0.9520     3.3960     1.6040 H     1 <1>   0.1500 
 23 H        2.1430    -0.3620     0.0100 H     1 <1>   0.1500 
 24 H        3.0350     4.4140     0.7820 H     1 <1>   0.1500 
 25 H        4.2310     0.6420    -0.8180 H     1 <1>   0.1500 
 26 H        6.6820     6.6610    -1.0990 H     1 <1>   0.0800 
 27 H        7.8310     5.7790    -2.0560 H     1 <1>   0.0800 
 28 H        7.8360     6.0630     0.9650 H     1 <1>   0.0800 
 29 H        8.9260     6.8440    -0.1380 H     1 <1>   0.0800 
 30 H        9.7850     4.5710    -0.8110 H     1 <1>   0.0800 
 31 H        8.7660     3.8720     0.4180 H     1 <1>   0.0800 
 32 H       12.0250     4.1570     2.1130 H     1 <1>   0.3700 
 33 H       10.5100     2.3730     0.2360 H     1 <1>   0.0800 
 34 H       11.4300     1.8510     1.6220 H     1 <1>   0.0800 
 35 H       13.5070     2.6790     0.5640 H     1 <1>   0.0800 
 36 H       12.5880     3.2380    -0.8120 H     1 <1>   0.0800 
 37 H       12.8370     0.3420     0.0640 H     1 <1>   0.0800 
 38 H       13.6550     1.0700    -1.2960 H     1 <1>   0.0800 
 39 H       11.9170     0.9020    -1.3160 H     1 <1>   0.0800 
@<TRIPOS>BOND
  1   1   2  1   
  2   2   3  ar  
  3   2   4  ar  
  4   3   5  ar  
  5   3  22  1   
  6   4   6  ar  
  7   4  23  1   
  8   5   7  ar  
  9   5  24  1   
 10   6   7  ar  
 11   6  25  1   
 12   7   8  1   
 13   8   9  2   
 14   8  10  1   
 15   9  11  1   
 16  10  12  2   
 17  11  12  1   
 18  12  13  1   
 19  13  14  1   
 20  13  26  1   
 21  13  27  1   
 22  14  15  1   
 23  14  28  1   
 24  14  29  1   
 25  15  16  1   
 26  15  30  1   
 27  15  31  1   
 28  16  17  2   
 29  16  18  am  
 30  18  19  1   
 31  18  32  1   
 32  19  20  1   
 33  19  33  1   
 34  19  34  1   
 35  20  21  1   
 36  20  35  1   
 37  20  36  1   
 38  21  37  1   
 39  21  38  1   
 40  21  39  1   
@<TRIPOS>SUBSTRUCTURE
  1 ****  11 GROUP 4 **** **** 0

# MOE 2024.06 (io_trps.svl 2023.06)
