@<TRIPOS>MOLECULE
1-(2,3-Dimethyl-phenyl)-5-oxo-pyrrolidine-3-carboxylic acid (5-chloro-2-methoxy-
47 49 1 0 0 
SMALL
USER_CHARGES


@<TRIPOS>ATOM
  1 CL       0.0760    -0.0110     0.6890 Cl    1 <1>  -0.1770 
  2 C       -1.4780     0.7610     0.4910 C.ar  1 <1>   0.1770 
  3 C       -2.6250    -0.0070     0.5300 C.ar  1 <1>  -0.1500 
  4 C       -1.5290     2.1270     0.2980 C.ar  1 <1>  -0.1500 
  5 C       -3.8680     0.5970     0.3730 C.ar  1 <1>   0.1170 
  6 C       -2.7600     2.7430     0.1410 C.ar  1 <1>  -0.1500 
  7 N       -5.0840    -0.1110     0.4010 N.am  1 <1>  -0.5470 
  8 C       -3.9280     1.9840     0.1780 C.ar  1 <1>   0.0830 
  9 C       -5.3950    -1.4370     0.5100 C.2   1 <1>   0.5690 
 10 O       -5.1720     2.5340     0.0280 O.3   1 <1>  -0.3630 
 11 O       -4.5700    -2.3080     0.6350 O.2   1 <1>  -0.5700 
 12 C       -6.8690    -1.8160     0.4880 C.3   1 <1>  -0.0190 
 13 C       -5.3390     3.9180    -0.1980 C.3   1 <1>   0.0400 
 14 C       -7.1210    -3.3230     0.3210 C.3   1 <1>   0.1400 
 15 C       -7.6740    -1.1610    -0.6480 C.3   1 <1>  -0.0990 
 16 N       -8.3960    -3.3990    -0.4160 N.am  1 <1>  -0.4770 
 17 C       -8.7130    -2.1970    -0.9720 C.2   1 <1>   0.5690 
 18 C       -9.0950    -4.6150    -0.5110 C.ar  1 <1>   0.1170 
 19 O       -9.6840    -1.9330    -1.6360 O.2   1 <1>  -0.5700 
 20 C      -10.3680    -4.8010     0.0440 C.ar  1 <1>  -0.1430 
 21 C       -8.4840    -5.6690    -1.1780 C.ar  1 <1>  -0.1500 
 22 C      -11.0070    -6.0320    -0.0970 C.ar  1 <1>  -0.1430 
 23 C      -11.0470    -3.6520     0.7920 C.3   1 <1>  -0.0970 
 24 C       -9.1120    -6.8900    -1.3040 C.ar  1 <1>  -0.1500 
 25 C      -10.3710    -7.0680    -0.7650 C.ar  1 <1>  -0.1500 
 26 C      -12.4040    -6.2930     0.4530 C.3   1 <1>  -0.0970 
 27 H       -2.5310    -1.0640     0.6840 H     1 <1>   0.1500 
 28 H       -0.6170     2.6960     0.2720 H     1 <1>   0.1500 
 29 H       -2.7800     3.8060    -0.0070 H     1 <1>   0.1500 
 30 H       -5.8750     0.5260     0.2980 H     1 <1>   0.3700 
 31 H       -7.2980    -1.5230     1.4290 H     1 <1>   0.0800 
 32 H       -6.3910     4.1180    -0.2940 H     1 <1>   0.0800 
 33 H       -4.8330     4.1880    -1.1090 H     1 <1>   0.0800 
 34 H       -4.9400     4.4610     0.6400 H     1 <1>   0.0800 
 35 H       -7.1960    -3.8210     1.2720 H     1 <1>   0.0800 
 36 H       -6.3500    -3.7870    -0.2710 H     1 <1>   0.0800 
 37 H       -7.0690    -1.0040    -1.5230 H     1 <1>   0.0800 
 38 H       -8.1350    -0.2400    -0.3430 H     1 <1>   0.0800 
 39 H       -7.5100    -5.5270    -1.6090 H     1 <1>   0.1500 
 40 H      -10.3240    -3.0420     1.2990 H     1 <1>   0.0800 
 41 H      -11.7330    -4.0070     1.5360 H     1 <1>   0.0800 
 42 H      -11.5820    -3.0380     0.0900 H     1 <1>   0.0800 
 43 H       -8.6280    -7.6980    -1.8230 H     1 <1>   0.1500 
 44 H      -10.8550    -8.0230    -0.8740 H     1 <1>   0.1500 
 45 H      -13.0770    -5.5170     0.1350 H     1 <1>   0.0800 
 46 H      -12.3760    -6.3210     1.5270 H     1 <1>   0.0800 
 47 H      -12.7910    -7.2310     0.0990 H     1 <1>   0.0800 
@<TRIPOS>BOND
  1   1   2  1   
  2   2   3  ar  
  3   2   4  ar  
  4   3   5  ar  
  5   3  27  1   
  6   4   6  ar  
  7   4  28  1   
  8   5   7  1   
  9   5   8  ar  
 10   6   8  ar  
 11   6  29  1   
 12   7   9  am  
 13   7  30  1   
 14   8  10  1   
 15   9  11  2   
 16   9  12  1   
 17  10  13  1   
 18  12  14  1   
 19  12  15  1   
 20  12  31  1   
 21  13  32  1   
 22  13  33  1   
 23  13  34  1   
 24  14  16  1   
 25  14  35  1   
 26  14  36  1   
 27  15  17  1   
 28  15  37  1   
 29  15  38  1   
 30  16  17  am  
 31  16  18  1   
 32  17  19  2   
 33  18  20  ar  
 34  18  21  ar  
 35  20  22  ar  
 36  20  23  1   
 37  21  24  ar  
 38  21  39  1   
 39  22  25  ar  
 40  22  26  1   
 41  23  40  1   
 42  23  41  1   
 43  23  42  1   
 44  24  25  ar  
 45  24  43  1   
 46  25  44  1   
 47  26  45  1   
 48  26  46  1   
 49  26  47  1   
@<TRIPOS>SUBSTRUCTURE
  1 ****  12 GROUP 4 **** **** 0

# MOE 2024.06 (io_trps.svl 2023.06)
