@<TRIPOS>MOLECULE
(4-Ethoxy-3-methoxy-phenyl)-piperidin-1-yl-acetonitrile
42 43 1 0 0 
SMALL
USER_CHARGES


@<TRIPOS>ATOM
  1 O        0.2140     0.3970    -0.2310 O.3   1 <1>  -0.3630 
  2 C        1.4210     0.9790    -0.4460 C.ar  1 <1>   0.0830 
  3 C        0.1840    -1.0100    -0.1200 C.3   1 <1>   0.1200 
  4 C        2.0640     1.7330     0.5430 C.ar  1 <1>   0.0830 
  5 C        2.0250     0.8160    -1.6830 C.ar  1 <1>  -0.1500 
  6 C        0.6510    -1.4200     1.2760 C.3   1 <1>  -0.2400 
  7 O        1.5500     1.9750     1.7780 O.3   1 <1>  -0.3620 
  8 C        3.3140     2.2690     0.2810 C.ar  1 <1>  -0.1500 
  9 C        3.2700     1.3670    -1.9350 C.ar  1 <1>  -0.1500 
 10 C        0.2050     2.3870     1.8850 C.3   1 <1>   0.0400 
 11 C        3.9290     2.0940    -0.9530 C.ar  1 <1>  -0.1430 
 12 C        5.3100     2.6970    -1.2270 C.3   1 <1>   0.5330 
 13 N        6.2790     2.3400    -0.1410 N.3   1 <1>  -0.8100 
 14 C        5.1550     4.1800    -1.4470 C.1   1 <1>   0.3570 
 15 C        7.6070     2.9560    -0.3440 C.3   1 <1>   0.1100 
 16 C        6.4010     0.8760     0.0240 C.3   1 <1>   0.1100 
 17 N        5.0740     5.2980    -1.6610 N.1   1 <1>  -0.5570 
 18 C        8.5120     2.6840     0.8610 C.3   1 <1>  -0.1600 
 19 C        7.2690     0.5460     1.2410 C.3   1 <1>  -0.1600 
 20 C        8.6580     1.1830     1.1260 C.3   1 <1>  -0.1600 
 21 H        0.8090    -1.4410    -0.8830 H     1 <1>   0.0800 
 22 H       -0.8330    -1.3240    -0.2800 H     1 <1>   0.0800 
 23 H        1.5170     0.2590    -2.4490 H     1 <1>   0.1500 
 24 H        1.6720    -1.1190     1.4350 H     1 <1>   0.0800 
 25 H        0.5920    -2.4880     1.3810 H     1 <1>   0.0800 
 26 H        0.0260    -0.9670     2.0240 H     1 <1>   0.0800 
 27 H        3.8090     2.8290     1.0560 H     1 <1>   0.1500 
 28 H        3.7160     1.2230    -2.9040 H     1 <1>   0.1500 
 29 H        0.0860     2.9020     2.8200 H     1 <1>   0.0800 
 30 H       -0.4290     1.5200     1.8650 H     1 <1>   0.0800 
 31 H       -0.0290     3.0460     1.0670 H     1 <1>   0.0800 
 32 H        5.6830     2.2860    -2.1480 H     1 <1>   0.0800 
 33 H        7.5160     4.0240    -0.4500 H     1 <1>   0.0800 
 34 H        8.0630     2.5630    -1.2380 H     1 <1>   0.0800 
 35 H        6.8330     0.4400    -0.8610 H     1 <1>   0.0800 
 36 H        5.4320     0.4310     0.1810 H     1 <1>   0.0800 
 37 H        8.0880     3.1660     1.7250 H     1 <1>   0.0800 
 38 H        9.4810     3.1160     0.6860 H     1 <1>   0.0800 
 39 H        7.3660    -0.5210     1.3330 H     1 <1>   0.0800 
 40 H        6.7740     0.9090     2.1250 H     1 <1>   0.0800 
 41 H        9.2130     1.0210     2.0340 H     1 <1>   0.0800 
 42 H        9.1970     0.7250     0.3150 H     1 <1>   0.0800 
@<TRIPOS>BOND
  1   1   2  1   
  2   1   3  1   
  3   2   4  ar  
  4   2   5  ar  
  5   3   6  1   
  6   3  21  1   
  7   3  22  1   
  8   4   7  1   
  9   4   8  ar  
 10   5   9  ar  
 11   5  23  1   
 12   6  24  1   
 13   6  25  1   
 14   6  26  1   
 15   7  10  1   
 16   8  11  ar  
 17   8  27  1   
 18   9  11  ar  
 19   9  28  1   
 20  10  29  1   
 21  10  30  1   
 22  10  31  1   
 23  11  12  1   
 24  12  13  1   
 25  12  14  1   
 26  12  32  1   
 27  13  15  1   
 28  13  16  1   
 29  14  17  3   
 30  15  18  1   
 31  15  33  1   
 32  15  34  1   
 33  16  19  1   
 34  16  35  1   
 35  16  36  1   
 36  18  20  1   
 37  18  37  1   
 38  18  38  1   
 39  19  20  1   
 40  19  39  1   
 41  19  40  1   
 42  20  41  1   
 43  20  42  1   
@<TRIPOS>SUBSTRUCTURE
  1 ****   8 GROUP 4 **** **** 0

# MOE 2024.06 (io_trps.svl 2023.06)
