@<TRIPOS>MOLECULE
3-Isopropyl-6-(4-methoxy-phenyl)-[1,2,4]triazolo[3,4-b][1,3,4]thiadiazole
33 35 1 0 0 
SMALL
USER_CHARGES


@<TRIPOS>ATOM
  1 S       -0.4560    -0.1090     0.7400 S.3   1 <1>  -0.1970 
  2 C        0.4580     1.3710     0.6050 C.2   1 <1>   0.2420 
  3 C       -1.9370     0.7900     0.2890 C.2   1 <1>   0.5050 
  4 N        1.6840     1.7230     0.7550 N.2   1 <1>  -0.3380 
  5 N       -0.3660     2.3400     0.2580 N.pl3 1 <1>   0.5050 
  6 N       -1.7160     2.0400     0.0750 N.2   1 <1>  -0.6520 
  7 C       -3.1930     0.0710     0.2090 C.ar  1 <1>   0.0860 
  8 N        1.6870     3.0440     0.4890 N.2   1 <1>  -0.3380 
  9 C        0.4670     3.3920     0.1960 C.2   1 <1>   0.0060 
 10 C       -4.3650     0.7530    -0.1350 C.ar  1 <1>  -0.1500 
 11 C       -3.3150    -1.3000     0.4600 C.ar  1 <1>  -0.1500 
 12 C       -0.0220     4.7900    -0.1690 C.3   1 <1>   0.1000 
 13 C       -5.5870     0.1150    -0.2250 C.ar  1 <1>  -0.1500 
 14 C       -4.5340    -1.9460     0.3720 C.ar  1 <1>  -0.1500 
 15 C        1.0920     5.6370    -0.7980 C.3   1 <1>  -0.2400 
 16 C       -0.5800     5.4920     1.0740 C.3   1 <1>  -0.2400 
 17 C       -5.6800    -1.2490     0.0300 C.ar  1 <1>   0.0830 
 18 O       -6.8320    -1.9550    -0.0340 O.3   1 <1>  -0.3630 
 19 C       -8.0570    -1.3440    -0.3740 C.3   1 <1>   0.0400 
 20 H       -4.3150     1.8100    -0.3370 H     1 <1>   0.1500 
 21 H       -2.4560    -1.8870     0.7290 H     1 <1>   0.1500 
 22 H       -0.8150     4.6940    -0.8930 H     1 <1>   0.0800 
 23 H       -6.4540     0.6890    -0.4940 H     1 <1>   0.1500 
 24 H       -4.6090    -3.0010     0.5680 H     1 <1>   0.1500 
 25 H        1.8950     5.7820    -0.0960 H     1 <1>   0.0800 
 26 H        0.7130     6.5980    -1.0940 H     1 <1>   0.0800 
 27 H        1.4860     5.1390    -1.6660 H     1 <1>   0.0800 
 28 H        0.1880     5.5870     1.8220 H     1 <1>   0.0800 
 29 H       -1.3940     4.9230     1.4880 H     1 <1>   0.0800 
 30 H       -0.9420     6.4720     0.8210 H     1 <1>   0.0800 
 31 H       -8.8210    -2.1000    -0.3600 H     1 <1>   0.0800 
 32 H       -7.9770    -0.9250    -1.3620 H     1 <1>   0.0800 
 33 H       -8.2820    -0.5840     0.3520 H     1 <1>   0.0800 
@<TRIPOS>BOND
  1   1   2  1   
  2   1   3  1   
  3   2   4  2   
  4   2   5  1   
  5   3   6  2   
  6   3   7  1   
  7   4   8  1   
  8   5   6  1   
  9   5   9  1   
 10   7  10  ar  
 11   7  11  ar  
 12   8   9  2   
 13   9  12  1   
 14  10  13  ar  
 15  10  20  1   
 16  11  14  ar  
 17  11  21  1   
 18  12  15  1   
 19  12  16  1   
 20  12  22  1   
 21  13  17  ar  
 22  13  23  1   
 23  14  17  ar  
 24  14  24  1   
 25  15  25  1   
 26  15  26  1   
 27  15  27  1   
 28  16  28  1   
 29  16  29  1   
 30  16  30  1   
 31  17  18  1   
 32  18  19  1   
 33  19  31  1   
 34  19  32  1   
 35  19  33  1   
@<TRIPOS>SUBSTRUCTURE
  1 ****   3 GROUP 4 **** **** 0

# MOE 2024.06 (io_trps.svl 2023.06)
