@<TRIPOS>MOLECULE
2-[2-Chloro-4-(piperidine-1-sulfonyl)-phenoxy]-N-furan-2-ylmethyl-acetamide
48 50 1 0 0 
SMALL
USER_CHARGES


@<TRIPOS>ATOM
  1 CL       2.9710    -6.6390    -0.4330 Cl    1 <1>  -0.1770 
  2 C        2.1070    -5.1500    -0.7450 C.ar  1 <1>   0.1770 
  3 C        2.4430    -4.3650    -1.8400 C.ar  1 <1>   0.0830 
  4 C        1.1050    -4.7790     0.1290 C.ar  1 <1>  -0.1500 
  5 O        3.4680    -4.7690    -2.6390 O.3   1 <1>  -0.3630 
  6 C        1.7310    -3.1880    -2.0510 C.ar  1 <1>  -0.1500 
  7 C        0.4010    -3.5970    -0.0630 C.ar  1 <1>  -0.0090 
  8 C        4.1700    -3.8600    -3.4830 C.3   1 <1>   0.1810 
  9 C        0.7300    -2.8170    -1.1680 C.ar  1 <1>  -0.1500 
 10 S       -0.8930    -3.0940     1.1030 S.o2  1 <1>   1.4470 
 11 C        4.7910    -2.7010    -2.7060 C.2   1 <1>   0.5690 
 12 O       -1.6510    -1.9870     0.5590 O.2   1 <1>  -0.6500 
 13 O       -0.3080    -2.9690     2.4210 O.2   1 <1>  -0.6500 
 14 N       -1.9250    -4.4370     1.1300 N.am  1 <1>  -0.8490 
 15 O        4.9540    -1.6460    -3.2710 O.2   1 <1>  -0.5700 
 16 N        5.1090    -2.8680    -1.3980 N.am  1 <1>  -0.7300 
 17 C       -2.8140    -4.4040     2.2960 C.3   1 <1>   0.1960 
 18 C       -2.6960    -4.5650    -0.1120 C.3   1 <1>   0.1960 
 19 C        5.3500    -1.7680    -0.4490 C.3   1 <1>   0.3200 
 20 C       -3.6260    -5.7010     2.3850 C.3   1 <1>  -0.1600 
 21 C       -3.4880    -5.8760    -0.1110 C.3   1 <1>  -0.1600 
 22 C        4.1780    -1.7080     0.5130 C.2   1 <1>  -0.0400 
 23 C       -4.4230    -5.9580     1.1000 C.3   1 <1>  -0.1600 
 24 O        3.9410    -2.7410     1.3010 O.3   1 <1>  -0.2800 
 25 C        3.2660    -0.7340     0.7230 C.2   1 <1>  -0.1500 
 26 C        2.8820    -2.4490     2.0300 C.2   1 <1>  -0.0100 
 27 C        2.4140    -1.2210     1.7220 C.2   1 <1>  -0.1500 
 28 H        0.8750    -5.4100     0.9710 H     1 <1>   0.1500 
 29 H        1.9440    -2.5460    -2.8860 H     1 <1>   0.1500 
 30 H        3.4910    -3.4900    -4.2280 H     1 <1>   0.0800 
 31 H        4.9500    -4.4120    -3.9730 H     1 <1>   0.0800 
 32 H        0.1960    -1.8950    -1.3370 H     1 <1>   0.1500 
 33 H        4.8250    -3.7390    -0.9410 H     1 <1>   0.3700 
 34 H       -3.4760    -3.5550     2.2270 H     1 <1>   0.0800 
 35 H       -2.2320    -4.3030     3.1970 H     1 <1>   0.0800 
 36 H       -2.0290    -4.5620    -0.9580 H     1 <1>   0.0800 
 37 H       -3.3730    -3.7310    -0.2140 H     1 <1>   0.0800 
 38 H        5.4450    -0.8330    -0.9740 H     1 <1>   0.0800 
 39 H        6.2590    -1.9550     0.0950 H     1 <1>   0.0800 
 40 H       -4.2980    -5.6440     3.2230 H     1 <1>   0.0800 
 41 H       -2.9490    -6.5180     2.5620 H     1 <1>   0.0800 
 42 H       -2.7960    -6.7000    -0.0950 H     1 <1>   0.0800 
 43 H       -4.0640    -5.9460    -1.0170 H     1 <1>   0.0800 
 44 H       -5.1980    -5.2160     1.0060 H     1 <1>   0.0800 
 45 H       -4.8890    -6.9270     1.1430 H     1 <1>   0.0800 
 46 H        3.1780     0.2240     0.2430 H     1 <1>   0.1500 
 47 H        2.5200    -3.1680     2.7450 H     1 <1>   0.1500 
 48 H        1.5660    -0.7060     2.1390 H     1 <1>   0.1500 
@<TRIPOS>BOND
  1   1   2  1   
  2   2   3  ar  
  3   2   4  ar  
  4   3   5  1   
  5   3   6  ar  
  6   4   7  ar  
  7   4  28  1   
  8   5   8  1   
  9   6   9  ar  
 10   6  29  1   
 11   7   9  ar  
 12   7  10  1   
 13   8  11  1   
 14   8  30  1   
 15   8  31  1   
 16   9  32  1   
 17  10  12  2   
 18  10  13  2   
 19  10  14  am  
 20  11  15  2   
 21  11  16  am  
 22  14  17  1   
 23  14  18  1   
 24  16  19  1   
 25  16  33  1   
 26  17  20  1   
 27  17  34  1   
 28  17  35  1   
 29  18  21  1   
 30  18  36  1   
 31  18  37  1   
 32  19  22  1   
 33  19  38  1   
 34  19  39  1   
 35  20  23  1   
 36  20  40  1   
 37  20  41  1   
 38  21  23  1   
 39  21  42  1   
 40  21  43  1   
 41  22  24  1   
 42  22  25  2   
 43  23  44  1   
 44  23  45  1   
 45  24  26  1   
 46  25  27  1   
 47  25  46  1   
 48  26  27  2   
 49  26  47  1   
 50  27  48  1   
@<TRIPOS>SUBSTRUCTURE
  1 ****   7 GROUP 4 **** **** 0

# MOE 2024.06 (io_trps.svl 2023.06)
