@<TRIPOS>MOLECULE
7-(2-Chloro-6-fluoro-benzyl)-1,3-dimethyl-8-(3-methyl-piperidin-1-ylmethyl)-3,7-
56 59 1 0 0 
SMALL
USER_CHARGES


@<TRIPOS>ATOM
  1 CL       1.2350     0.3350     1.5160 Cl    1 <1>  -0.1770 
  2 C        0.2720     1.4810     0.6190 C.ar  1 <1>   0.1770 
  3 C       -1.0990     1.3070     0.4800 C.ar  1 <1>  -0.1440 
  4 C        0.9340     2.5680     0.0720 C.ar  1 <1>  -0.1500 
  5 C       -1.7770     2.3050    -0.2100 C.ar  1 <1>   0.1900 
  6 C       -1.8070     0.0940     1.0810 C.3   1 <1>   0.4980 
  7 C        0.2270     3.5320    -0.6270 C.ar  1 <1>  -0.1500 
  8 F       -3.0730     2.2370    -0.3570 F     1 <1>  -0.1900 
  9 C       -1.1430     3.4030    -0.7660 C.ar  1 <1>  -0.1500 
 10 N       -2.6790    -0.5700     0.0670 N.pl3 1 <1>  -0.7640 
 11 C       -4.0750    -0.5110     0.0480 C.2   1 <1>   0.2770 
 12 C       -2.2930    -1.2890    -0.9800 C.cat 1 <1>   0.6560 
 13 C       -5.0850     0.0750     0.8850 C.2   1 <1>   0.7030 
 14 C       -4.4660    -1.2000    -1.0500 C.2   1 <1>   0.4260 
 15 N       -3.3600    -1.6840    -1.6740 N.pl3 1 <1>  -0.7000 
 16 C       -0.8380    -1.6390    -1.3480 C.3   1 <1>   0.2540 
 17 O       -4.7980     0.6470     1.9220 O.2   1 <1>  -0.5700 
 18 N       -6.4110    -0.0490     0.4960 N.am  1 <1>  -0.4200 
 19 N       -5.7870    -1.3560    -1.4290 N.am  1 <1>  -0.4360 
 20 N       -0.1360    -2.3940    -0.2840 N.3   1 <1>  -0.8100 
 21 C       -6.7670    -0.7860    -0.6280 C.2   1 <1>   0.6900 
 22 C       -7.4890     0.5800     1.3230 C.3   1 <1>   0.0600 
 23 C       -6.1530    -2.1260    -2.6550 C.3   1 <1>   0.0600 
 24 C       -0.7120    -3.7390    -0.0770 C.3   1 <1>   0.1100 
 25 C        1.3080    -2.4810    -0.5660 C.3   1 <1>   0.1100 
 26 O       -7.9390    -0.9400    -0.9060 O.2   1 <1>  -0.5700 
 27 C       -0.0510    -4.4290     1.1270 C.3   1 <1>  -0.0800 
 28 C        2.0390    -3.1310     0.6120 C.3   1 <1>  -0.1600 
 29 C        1.4680    -4.5180     0.9300 C.3   1 <1>  -0.1600 
 30 C       -0.6440    -5.8260     1.3470 C.3   1 <1>  -0.2400 
 31 H        1.9990     2.6610     0.2000 H     1 <1>   0.1500 
 32 H       -2.3900     0.4150     1.9260 H     1 <1>   0.0800 
 33 H       -1.1020    -0.6300     1.4480 H     1 <1>   0.0800 
 34 H        0.7390     4.3800    -1.0520 H     1 <1>   0.1500 
 35 H       -1.7140     4.1460    -1.2950 H     1 <1>   0.1500 
 36 H       -3.3640    -2.2550    -2.5190 H     1 <1>   0.4500 
 37 H       -0.3150    -0.7160    -1.5250 H     1 <1>   0.0800 
 38 H       -0.8220    -2.2070    -2.2610 H     1 <1>   0.0800 
 39 H       -7.1110     1.4330     1.8600 H     1 <1>   0.0800 
 40 H       -7.8690    -0.1380     2.0280 H     1 <1>   0.0800 
 41 H       -8.2980     0.9130     0.6940 H     1 <1>   0.0800 
 42 H       -5.4830    -1.8860    -3.4610 H     1 <1>   0.0800 
 43 H       -7.1540    -1.8850    -2.9740 H     1 <1>   0.0800 
 44 H       -6.1060    -3.1810    -2.4490 H     1 <1>   0.0800 
 45 H       -0.5660    -4.3410    -0.9590 H     1 <1>   0.0800 
 46 H       -1.7680    -3.6640     0.1160 H     1 <1>   0.0800 
 47 H        1.7120    -1.4940    -0.7190 H     1 <1>   0.0800 
 48 H        1.4780    -3.0600    -1.4590 H     1 <1>   0.0800 
 49 H       -0.2530    -3.8360     2.0030 H     1 <1>   0.0800 
 50 H        1.9470    -2.4970     1.4760 H     1 <1>   0.0800 
 51 H        3.0860    -3.2170     0.3810 H     1 <1>   0.0800 
 52 H        1.6910    -5.1870     0.1170 H     1 <1>   0.0800 
 53 H        1.9340    -4.9060     1.8190 H     1 <1>   0.0800 
 54 H       -0.4680    -6.4550     0.4920 H     1 <1>   0.0800 
 55 H       -1.7040    -5.7620     1.5180 H     1 <1>   0.0800 
 56 H       -0.1930    -6.2870     2.2080 H     1 <1>   0.0800 
@<TRIPOS>BOND
  1   1   2  1   
  2   2   3  ar  
  3   2   4  ar  
  4   3   5  ar  
  5   3   6  1   
  6   4   7  ar  
  7   4  31  1   
  8   5   8  1   
  9   5   9  ar  
 10   6  10  1   
 11   6  32  1   
 12   6  33  1   
 13   7   9  ar  
 14   7  34  1   
 15   9  35  1   
 16  10  11  1   
 17  10  12  ar  
 18  11  13  1   
 19  11  14  2   
 20  12  15  ar  
 21  12  16  1   
 22  13  17  2   
 23  13  18  am  
 24  14  15  1   
 25  14  19  1   
 26  15  36  1   
 27  16  20  1   
 28  16  37  1   
 29  16  38  1   
 30  18  21  am  
 31  18  22  1   
 32  19  21  am  
 33  19  23  1   
 34  20  24  1   
 35  20  25  1   
 36  21  26  2   
 37  22  39  1   
 38  22  40  1   
 39  22  41  1   
 40  23  42  1   
 41  23  43  1   
 42  23  44  1   
 43  24  27  1   
 44  24  45  1   
 45  24  46  1   
 46  25  28  1   
 47  25  47  1   
 48  25  48  1   
 49  27  29  1   
 50  27  30  1   
 51  27  49  1   
 52  28  29  1   
 53  28  50  1   
 54  28  51  1   
 55  29  52  1   
 56  29  53  1   
 57  30  54  1   
 58  30  55  1   
 59  30  56  1   
@<TRIPOS>SUBSTRUCTURE
  1 ****  10 GROUP 4 **** **** 0

# MOE 2024.06 (io_trps.svl 2023.06)
