@<TRIPOS>MOLECULE
1,6,7-Trimethyl-3-phenethyl-8-(tetrahydro-furan-2-ylmethyl)-1H,8H-imidazo[2,1-f]
59 63 1 0 0 
SMALL
USER_CHARGES


@<TRIPOS>ATOM
  1 O        1.3330    -0.0940    -0.5650 O.2   1 <1>  -0.5740 
  2 C        2.1000     0.8300    -0.3890 C.2   1 <1>   0.6870 
  3 N        1.6350     2.1410    -0.4220 N.am  1 <1>  -0.4250 
  4 N        3.4440     0.5750    -0.1500 N.am  1 <1>  -0.4410 
  5 C        2.4880     3.2160    -0.2060 C.2   1 <1>   0.7000 
  6 C        0.1870     2.3960    -0.7020 C.3   1 <1>   0.1340 
  7 C        4.2890     1.6490     0.0360 C.2   1 <1>   0.4220 
  8 C        3.9600    -0.8260    -0.1090 C.3   1 <1>   0.0540 
  9 O        2.0610     4.3580    -0.2010 O.2   1 <1>  -0.5740 
 10 C        3.8710     2.9380     0.0130 C.2   1 <1>   0.2720 
 11 C       -0.6210     2.4020     0.5970 C.3   1 <1>  -0.0230 
 12 N        5.6330     1.6210     0.2500 N.pl3 1 <1>  -0.7030 
 13 N        5.0190     3.7280     0.2110 N.pl3 1 <1>  -0.6320 
 14 C       -2.0840     2.6660     0.2870 C.ar  1 <1>  -0.1500 
 15 C        6.0370     2.8870     0.3370 C.cat 1 <1>   1.0690 
 16 C        5.5430     5.0000     0.3010 C.2   1 <1>   0.2350 
 17 C       -2.9360     1.6120    -0.0020 C.ar  1 <1>  -0.1560 
 18 C       -2.5770     3.9620     0.2830 C.ar  1 <1>  -0.1560 
 19 N        7.2000     3.5270     0.5080 N.pl3 1 <1>  -0.5710 
 20 C        6.8810     4.8770     0.4860 C.2   1 <1>   0.1590 
 21 C        4.6410     6.2140     0.1930 C.3   1 <1>  -0.1080 
 22 C       -4.2680     1.8500    -0.2930 C.ar  1 <1>  -0.1560 
 23 C       -3.9090     4.2010    -0.0070 C.ar  1 <1>  -0.1560 
 24 C        8.5360     2.9030     0.7700 C.3   1 <1>   0.1620 
 25 C        7.9390     5.9550     0.6520 C.3   1 <1>  -0.1080 
 26 C       -4.7560     3.1450    -0.2950 C.ar  1 <1>  -0.1560 
 27 C        8.9830     1.9150    -0.3250 C.3   1 <1>   0.1940 
 28 O        8.1100     0.8310    -0.4140 O.3   1 <1>  -0.5640 
 29 C       10.3370     1.2760    -0.0470 C.3   1 <1>  -0.1660 
 30 C        8.7530    -0.2380    -1.0400 C.3   1 <1>   0.1140 
 31 C       10.2430    -0.0610    -0.7620 C.3   1 <1>  -0.1660 
 32 H       -0.2000     1.6370    -1.3600 H     1 <1>   0.0740 
 33 H        0.0670     3.3420    -1.2030 H     1 <1>   0.0740 
 34 H        4.3090    -1.1130    -1.0860 H     1 <1>   0.0740 
 35 H        3.1800    -1.5060     0.1910 H     1 <1>   0.0740 
 36 H        4.7670    -0.9110     0.5980 H     1 <1>   0.0740 
 37 H       -0.2520     3.1680     1.2560 H     1 <1>   0.0740 
 38 H       -0.5280     1.4500     1.0900 H     1 <1>   0.0740 
 39 H        6.3340     0.8780     0.1230 H     1 <1>   0.4460 
 40 H       -2.5670     0.6010    -0.0050 H     1 <1>   0.1440 
 41 H       -1.9280     4.7910     0.5050 H     1 <1>   0.1440 
 42 H        4.1410     6.2160    -0.7590 H     1 <1>   0.0740 
 43 H        5.2020     7.1240     0.2870 H     1 <1>   0.0740 
 44 H        3.8970     6.1890     0.9700 H     1 <1>   0.0740 
 45 H       -4.9240     1.0280    -0.5160 H     1 <1>   0.1440 
 46 H       -4.2860     5.2080    -0.0080 H     1 <1>   0.1440 
 47 H        8.5070     2.3890     1.7160 H     1 <1>   0.0740 
 48 H        9.2820     3.6730     0.8480 H     1 <1>   0.0740 
 49 H        8.4240     5.8550     1.6070 H     1 <1>   0.0740 
 50 H        7.5030     6.9360     0.5970 H     1 <1>   0.0740 
 51 H        8.6780     5.8720    -0.1260 H     1 <1>   0.0740 
 52 H       -5.7910     3.3310    -0.5200 H     1 <1>   0.1440 
 53 H        9.0050     2.4020    -1.2860 H     1 <1>   0.0740 
 54 H       10.4670     1.1170     1.0100 H     1 <1>   0.0740 
 55 H       11.1490     1.8800    -0.4150 H     1 <1>   0.0740 
 56 H        8.5490    -0.1860    -2.0960 H     1 <1>   0.0740 
 57 H        8.3750    -1.1610    -0.6350 H     1 <1>   0.0740 
 58 H       10.6220    -0.8620    -0.1510 H     1 <1>   0.0740 
 59 H       10.7870    -0.0470    -1.6910 H     1 <1>   0.0740 
@<TRIPOS>BOND
  1   1   2  2   
  2   2   3  am  
  3   2   4  am  
  4   3   5  am  
  5   3   6  1   
  6   4   7  1   
  7   4   8  1   
  8   5   9  2   
  9   5  10  1   
 10   6  11  1   
 11   6  32  1   
 12   6  33  1   
 13   7  10  2   
 14   7  12  1   
 15   8  34  1   
 16   8  35  1   
 17   8  36  1   
 18  10  13  1   
 19  11  14  1   
 20  11  37  1   
 21  11  38  1   
 22  12  15  ar  
 23  12  39  1   
 24  13  15  ar  
 25  13  16  1   
 26  14  17  ar  
 27  14  18  ar  
 28  15  19  ar  
 29  16  20  2   
 30  16  21  1   
 31  17  22  ar  
 32  17  40  1   
 33  18  23  ar  
 34  18  41  1   
 35  19  20  1   
 36  19  24  1   
 37  20  25  1   
 38  21  42  1   
 39  21  43  1   
 40  21  44  1   
 41  22  26  ar  
 42  22  45  1   
 43  23  26  ar  
 44  23  46  1   
 45  24  27  1   
 46  24  47  1   
 47  24  48  1   
 48  25  49  1   
 49  25  50  1   
 50  25  51  1   
 51  26  52  1   
 52  27  28  1   
 53  27  29  1   
 54  27  53  1   
 55  28  30  1   
 56  29  31  1   
 57  29  54  1   
 58  29  55  1   
 59  30  31  1   
 60  30  56  1   
 61  30  57  1   
 62  31  58  1   
 63  31  59  1   
@<TRIPOS>SUBSTRUCTURE
  1 ****  10 GROUP 4 **** **** 0

# MOE 2024.06 (io_trps.svl 2023.06)
