@<TRIPOS>MOLECULE
3-(2-Isopropyl-imidazol-1-yl)-propylamine
30 30 1 0 0 
SMALL
USER_CHARGES


@<TRIPOS>ATOM
  1 N       -0.0100    -0.3110    -0.6530 N.2   1 <1>  -0.5650 
  2 C        0.1840    -1.4430    -0.0520 C.2   1 <1>   0.0060 
  3 C       -1.3410    -0.1400    -0.6280 C.2   1 <1>   0.0770 
  4 N       -0.9740    -2.0330     0.3540 N.pl3 1 <1>   0.0480 
  5 C        1.5740    -2.0500     0.1720 C.3   1 <1>   0.1000 
  6 C       -1.9460    -1.1780    -0.0180 C.2   1 <1>  -0.3020 
  7 C       -1.2030    -3.3350     1.0150 C.3   1 <1>   0.0960 
  8 C        2.6710    -0.9760     0.2000 C.3   1 <1>  -0.2400 
  9 C        1.8900    -3.0800    -0.9180 C.3   1 <1>  -0.2400 
 10 C       -1.8510    -4.3140     0.0220 C.3   1 <1>  -0.1600 
 11 C       -2.0600    -5.6910     0.6490 C.3   1 <1>   0.3430 
 12 N       -2.6820    -6.5920    -0.3500 N.4   1 <1>  -0.8530 
 13 H       -1.7960     0.7380    -1.0570 H     1 <1>   0.1500 
 14 H        1.5900    -2.5360     1.1310 H     1 <1>   0.0800 
 15 H       -2.9920    -1.3370     0.1640 H     1 <1>   0.1500 
 16 H       -1.8460    -3.1700     1.8620 H     1 <1>   0.0800 
 17 H       -0.2650    -3.7210     1.3700 H     1 <1>   0.0800 
 18 H        2.7300    -0.4760    -0.7510 H     1 <1>   0.0800 
 19 H        3.6270    -1.4140     0.4210 H     1 <1>   0.0800 
 20 H        2.4440    -0.2420     0.9520 H     1 <1>   0.0800 
 21 H        1.8670    -2.6040    -1.8830 H     1 <1>   0.0800 
 22 H        1.1700    -3.8750    -0.9110 H     1 <1>   0.0800 
 23 H        2.8690    -3.4990    -0.7650 H     1 <1>   0.0800 
 24 H       -1.2110    -4.4020    -0.8390 H     1 <1>   0.0800 
 25 H       -2.8010    -3.9120    -0.2860 H     1 <1>   0.0800 
 26 H       -2.6990    -5.6040     1.5150 H     1 <1>   0.0800 
 27 H       -1.1100    -6.0940     0.9670 H     1 <1>   0.0800 
 28 H       -3.5940    -6.2310    -0.6570 H     1 <1>   0.4500 
 29 H       -2.8330    -7.5320     0.0380 H     1 <1>   0.4500 
 30 H       -2.0890    -6.6890    -1.1830 H     1 <1>   0.4500 
@<TRIPOS>BOND
  1   1   2  2   
  2   1   3  1   
  3   2   4  1   
  4   2   5  1   
  5   3   6  2   
  6   3  13  1   
  7   4   6  1   
  8   4   7  1   
  9   5   8  1   
 10   5   9  1   
 11   5  14  1   
 12   6  15  1   
 13   7  10  1   
 14   7  16  1   
 15   7  17  1   
 16   8  18  1   
 17   8  19  1   
 18   8  20  1   
 19   9  21  1   
 20   9  22  1   
 21   9  23  1   
 22  10  11  1   
 23  10  24  1   
 24  10  25  1   
 25  11  12  1   
 26  11  26  1   
 27  11  27  1   
 28  12  28  1   
 29  12  29  1   
 30  12  30  1   
@<TRIPOS>SUBSTRUCTURE
  1 ****   4 GROUP 4 **** **** 0

# MOE 2024.06 (io_trps.svl 2023.06)
