@<TRIPOS>MOLECULE
1-(2-Ethyl-phenyl)-5-oxo-pyrrolidine-3-carboxylic acid (3-methoxy-phenyl)-amide
47 49 1 0 0 
SMALL
USER_CHARGES


@<TRIPOS>ATOM
  1 O        0.7700    -0.0580     2.1030 O.2   1 <1>  -0.5700 
  2 C        1.6270    -0.2780     1.2850 C.2   1 <1>   0.5690 
  3 N        1.8460    -1.4420     0.6150 N.am  1 <1>  -0.4770 
  4 C        2.6150     0.7760     0.8720 C.3   1 <1>  -0.0990 
  5 C        1.1700    -2.6640     0.7540 C.ar  1 <1>   0.1170 
  6 C        3.0090    -1.3280    -0.2810 C.3   1 <1>   0.1400 
  7 C        3.2450     0.1860    -0.4020 C.3   1 <1>  -0.0190 
  8 C       -0.1220    -2.8710     0.2600 C.ar  1 <1>  -0.1440 
  9 C        1.8240    -3.7130     1.3910 C.ar  1 <1>  -0.1500 
 10 C        4.7040     0.5640    -0.6120 C.2   1 <1>   0.5690 
 11 C       -0.7170    -4.1150     0.4090 C.ar  1 <1>  -0.1500 
 12 C       -0.9120    -1.7750    -0.4480 C.3   1 <1>  -0.0170 
 13 C        1.2220    -4.9480     1.5360 C.ar  1 <1>  -0.1500 
 14 O        5.4920    -0.3000    -0.9060 O.2   1 <1>  -0.5700 
 15 N        5.0430     1.8810    -0.4610 N.am  1 <1>  -0.5470 
 16 C       -0.0530    -5.1500     1.0420 C.ar  1 <1>  -0.1500 
 17 C       -0.5590    -1.7180    -1.9360 C.3   1 <1>  -0.2400 
 18 C        6.2790     2.5390    -0.5620 C.ar  1 <1>   0.1170 
 19 C        6.4120     3.7830     0.0410 C.ar  1 <1>  -0.1500 
 20 C        7.3730     2.0180    -1.2470 C.ar  1 <1>  -0.1500 
 21 C        7.5970     4.4930    -0.0250 C.ar  1 <1>   0.0820 
 22 C        8.5640     2.7180    -1.3180 C.ar  1 <1>  -0.1500 
 23 O        7.6190     5.6970     0.6010 O.3   1 <1>  -0.3620 
 24 C        8.6830     3.9550    -0.7100 C.ar  1 <1>  -0.1500 
 25 C        8.7830     6.4930     0.6100 C.3   1 <1>   0.0400 
 26 H        3.3390     0.8860     1.6600 H     1 <1>   0.0800 
 27 H        2.1180     1.7110     0.6880 H     1 <1>   0.0800 
 28 H        2.8060    -1.7770    -1.2380 H     1 <1>   0.0800 
 29 H        3.8490    -1.8220     0.1780 H     1 <1>   0.0800 
 30 H        2.6880     0.5290    -1.2550 H     1 <1>   0.0800 
 31 H        2.8130    -3.5560     1.7810 H     1 <1>   0.1500 
 32 H       -1.7090    -4.2860     0.0300 H     1 <1>   0.1500 
 33 H       -0.7250    -0.8210     0.0100 H     1 <1>   0.0800 
 34 H       -1.9650    -1.9660    -0.3430 H     1 <1>   0.0800 
 35 H        1.7420    -5.7480     2.0330 H     1 <1>   0.1500 
 36 H        4.2810     2.4930    -0.1760 H     1 <1>   0.3700 
 37 H       -0.5280    -6.1090     1.1510 H     1 <1>   0.1500 
 38 H        0.4840    -1.4920    -2.0630 H     1 <1>   0.0800 
 39 H       -1.1410    -0.9570    -2.4250 H     1 <1>   0.0800 
 40 H       -0.7650    -2.6660    -2.4010 H     1 <1>   0.0800 
 41 H        5.5900     4.2170     0.5760 H     1 <1>   0.1500 
 42 H        7.3030     1.0620    -1.7320 H     1 <1>   0.1500 
 43 H        9.4000     2.2970    -1.8500 H     1 <1>   0.1500 
 44 H        9.6170     4.4770    -0.7800 H     1 <1>   0.1500 
 45 H        8.5700     7.3890     1.1650 H     1 <1>   0.0800 
 46 H        9.0430     6.7440    -0.4030 H     1 <1>   0.0800 
 47 H        9.5760     5.9470     1.0890 H     1 <1>   0.0800 
@<TRIPOS>BOND
  1   1   2  2   
  2   2   3  am  
  3   2   4  1   
  4   3   5  1   
  5   3   6  1   
  6   4   7  1   
  7   4  26  1   
  8   4  27  1   
  9   5   8  ar  
 10   5   9  ar  
 11   6   7  1   
 12   6  28  1   
 13   6  29  1   
 14   7  10  1   
 15   7  30  1   
 16   8  11  ar  
 17   8  12  1   
 18   9  13  ar  
 19   9  31  1   
 20  10  14  2   
 21  10  15  am  
 22  11  16  ar  
 23  11  32  1   
 24  12  17  1   
 25  12  33  1   
 26  12  34  1   
 27  13  16  ar  
 28  13  35  1   
 29  15  18  1   
 30  15  36  1   
 31  16  37  1   
 32  17  38  1   
 33  17  39  1   
 34  17  40  1   
 35  18  19  ar  
 36  18  20  ar  
 37  19  21  ar  
 38  19  41  1   
 39  20  22  ar  
 40  20  42  1   
 41  21  23  1   
 42  21  24  ar  
 43  22  24  ar  
 44  22  43  1   
 45  23  25  1   
 46  24  44  1   
 47  25  45  1   
 48  25  46  1   
 49  25  47  1   
@<TRIPOS>SUBSTRUCTURE
  1 ****   7 GROUP 4 **** **** 0

# MOE 2024.06 (io_trps.svl 2023.06)
