@<TRIPOS>MOLECULE
1-[(8,8-Dimethyl-8,9-dihydro-6H-7-oxa-11-thia-2,4,10-triaza-benzo[b]fluoren-1-yl
54 57 1 0 0 
SMALL
USER_CHARGES


@<TRIPOS>ATOM
  1 S       -0.2570    -0.0500     0.8050 S.3   1 <1>  -0.0800 
  2 C       -1.8350     0.5620     0.2950 C.ar  1 <1>   0.2970 
  3 C        0.5990     1.2170    -0.1090 C.ar  1 <1>   0.0400 
  4 N       -2.9580    -0.0160     0.6780 N.ar  1 <1>  -0.5670 
  5 C       -1.6790     1.6740    -0.5180 C.ar  1 <1>   0.0000 
  6 C        1.9600     1.4600    -0.2250 C.ar  1 <1>   0.4100 
  7 C       -0.3030     2.0400    -0.7310 C.ar  1 <1>   0.2560 
  8 C       -4.0430     0.5760     0.2030 C.ar  1 <1>   0.1660 
  9 C       -2.8340     2.2680    -0.9980 C.ar  1 <1>  -0.1500 
 10 N        2.3640     2.5130    -0.9140 N.ar  1 <1>  -0.6200 
 11 N        2.9450     0.6760     0.3510 N.pl3 1 <1>  -0.8380 
 12 N        0.1060     3.0840    -1.4460 N.ar  1 <1>  -0.5660 
 13 C       -4.0370     1.7010    -0.6240 C.ar  1 <1>  -0.1430 
 14 C       -5.3660    -0.0510     0.5930 C.3   1 <1>  -0.0170 
 15 C        1.4160     3.2460    -1.4850 C.ar  1 <1>   0.4700 
 16 C        4.0660     1.3440     1.0870 C.3   1 <1>   0.2090 
 17 C        2.8710    -0.8240     0.2980 C.3   1 <1>   0.2090 
 18 C       -5.3410     2.3240    -1.1050 C.3   1 <1>   0.2630 
 19 C       -6.5470     0.9160     0.4100 C.3   1 <1>   0.2800 
 20 C        5.2440     1.7270     0.1600 C.3   1 <1>   0.2000 
 21 C        4.1370    -1.5190    -0.2500 C.3   1 <1>   0.2000 
 22 O       -6.4490     1.5070    -0.8480 O.3   1 <1>  -0.5600 
 23 C       -7.8690     0.1480     0.4010 C.3   1 <1>  -0.2400 
 24 C       -6.6010     1.9990     1.5000 C.3   1 <1>  -0.2400 
 25 O        6.3360     0.9070     0.3970 O.3   1 <1>  -0.6800 
 26 C        5.7210     3.1630     0.3620 C.3   1 <1>  -0.2400 
 27 O        3.7600    -2.6050    -1.0240 O.3   1 <1>  -0.6800 
 28 C        5.0520    -2.0780     0.8410 C.3   1 <1>  -0.2400 
 29 H       -2.7740     3.1360    -1.6320 H     1 <1>   0.1500 
 30 H       -5.3230    -0.3760     1.6160 H     1 <1>   0.0800 
 31 H       -5.5130    -0.9220    -0.0180 H     1 <1>   0.0800 
 32 H        1.7670     4.0890    -2.0570 H     1 <1>   0.1500 
 33 H        4.4030     0.7210     1.8950 H     1 <1>   0.0800 
 34 H        3.6700     2.2440     1.5240 H     1 <1>   0.0800 
 35 H        2.0550    -1.0920    -0.3510 H     1 <1>   0.0800 
 36 H        2.6480    -1.1950     1.2820 H     1 <1>   0.0800 
 37 H       -5.3040     2.4810    -2.1690 H     1 <1>   0.0800 
 38 H       -5.5040     3.2730    -0.6260 H     1 <1>   0.0800 
 39 H        4.9490     1.5850    -0.8670 H     1 <1>   0.0800 
 40 H        4.6710    -0.8440    -0.8980 H     1 <1>   0.0800 
 41 H       -7.8750    -0.5780    -0.3920 H     1 <1>   0.0800 
 42 H       -8.6910     0.8260     0.2560 H     1 <1>   0.0800 
 43 H       -8.0120    -0.3650     1.3350 H     1 <1>   0.0800 
 44 H       -5.6590     2.5060     1.6030 H     1 <1>   0.0800 
 45 H       -6.8290     1.5500     2.4490 H     1 <1>   0.0800 
 46 H       -7.3700     2.7160     1.2740 H     1 <1>   0.0800 
 47 H        6.8410     1.2380     1.1620 H     1 <1>   0.4000 
 48 H        6.0240     3.3330     1.3790 H     1 <1>   0.0800 
 49 H        4.9170     3.8390     0.1280 H     1 <1>   0.0800 
 50 H        6.5390     3.3780    -0.3030 H     1 <1>   0.0800 
 51 H        3.4490    -3.3330    -0.4550 H     1 <1>   0.4000 
 52 H        4.5410    -2.8110     1.4380 H     1 <1>   0.0800 
 53 H        5.3830    -1.2910     1.4890 H     1 <1>   0.0800 
 54 H        5.9230    -2.5210     0.3920 H     1 <1>   0.0800 
@<TRIPOS>BOND
  1   1   2  1   
  2   1   3  1   
  3   2   4  ar  
  4   2   5  ar  
  5   3   6  ar  
  6   3   7  ar  
  7   4   8  ar  
  8   5   7  1   
  9   5   9  ar  
 10   6  10  ar  
 11   6  11  1   
 12   7  12  ar  
 13   8  13  ar  
 14   8  14  1   
 15   9  13  ar  
 16   9  29  1   
 17  10  15  ar  
 18  11  16  1   
 19  11  17  1   
 20  12  15  ar  
 21  13  18  1   
 22  14  19  1   
 23  14  30  1   
 24  14  31  1   
 25  15  32  1   
 26  16  20  1   
 27  16  33  1   
 28  16  34  1   
 29  17  21  1   
 30  17  35  1   
 31  17  36  1   
 32  18  22  1   
 33  18  37  1   
 34  18  38  1   
 35  19  22  1   
 36  19  23  1   
 37  19  24  1   
 38  20  25  1   
 39  20  26  1   
 40  20  39  1   
 41  21  27  1   
 42  21  28  1   
 43  21  40  1   
 44  23  41  1   
 45  23  42  1   
 46  23  43  1   
 47  24  44  1   
 48  24  45  1   
 49  24  46  1   
 50  25  47  1   
 51  26  48  1   
 52  26  49  1   
 53  26  50  1   
 54  27  51  1   
 55  28  52  1   
 56  28  53  1   
 57  28  54  1   
@<TRIPOS>SUBSTRUCTURE
  1 ****   3 GROUP 4 **** **** 0

# MOE 2024.06 (io_trps.svl 2023.06)
