@<TRIPOS>MOLECULE
1-(2,5-Dimethoxy-benzenesulfonyl)-piperidine-3-carboxylic acid cyclopropylamide
49 51 1 0 0 
SMALL
USER_CHARGES


@<TRIPOS>ATOM
  1 S        0.5730    -0.4510     0.8250 S.o2  1 <1>   1.4470 
  2 O        0.0930    -1.6700     1.4430 O.2   1 <1>  -0.6500 
  3 O        1.5470     0.3300     1.5640 O.2   1 <1>  -0.6500 
  4 N        1.2810    -0.8350    -0.6760 N.am  1 <1>  -0.8490 
  5 C       -0.8120     0.6280     0.3810 C.ar  1 <1>  -0.0090 
  6 C        2.6360    -0.3190    -0.9070 C.3   1 <1>   0.1960 
  7 C        1.1160    -2.2180    -1.1390 C.3   1 <1>   0.1960 
  8 C       -1.9370     0.1400    -0.2780 C.ar  1 <1>   0.0820 
  9 C       -0.7810     1.9850     0.6820 C.ar  1 <1>  -0.1500 
 10 C        3.6860    -1.1810    -0.1930 C.3   1 <1>  -0.0190 
 11 C        2.1500    -3.1580    -0.4980 C.3   1 <1>  -0.1600 
 12 O       -2.0240    -1.1650    -0.6110 O.3   1 <1>  -0.3630 
 13 C       -2.9860     0.9790    -0.6280 C.ar  1 <1>  -0.1500 
 14 C       -1.8230     2.8330     0.3450 C.ar  1 <1>   0.0820 
 15 C        5.0570    -0.5670    -0.4160 C.2   1 <1>   0.5690 
 16 C        3.5870    -2.6420    -0.6740 C.3   1 <1>  -0.1600 
 17 C       -2.8750    -1.9580     0.1870 C.3   1 <1>   0.0400 
 18 C       -2.9350     2.3240    -0.3160 C.ar  1 <1>  -0.1500 
 19 O       -1.6820     4.1380     0.6930 O.3   1 <1>  -0.3630 
 20 O        5.5890    -0.6810    -1.4960 O.2   1 <1>  -0.5700 
 21 N        5.6260     0.1170     0.6110 N.am  1 <1>  -0.5790 
 22 C       -2.6830     5.0860     0.3940 C.3   1 <1>   0.0400 
 23 C        6.9320     0.7890     0.5740 C.3   1 <1>   0.0490 
 24 C        7.7290     0.8430     1.8340 C.3   1 <1>  -0.2000 
 25 C        7.0730     2.0830     1.3030 C.3   1 <1>  -0.2000 
 26 H        2.7040     0.7050    -0.5790 H     1 <1>   0.0800 
 27 H        2.8380    -0.3290    -1.9650 H     1 <1>   0.0800 
 28 H        1.2430    -2.2370    -2.2080 H     1 <1>   0.0800 
 29 H        0.1180    -2.5650    -0.9270 H     1 <1>   0.0800 
 30 H        0.0700     2.4020     1.1910 H     1 <1>   0.1500 
 31 H        3.4910    -1.1650     0.8630 H     1 <1>   0.0800 
 32 H        2.0620    -4.1320    -0.9450 H     1 <1>   0.0800 
 33 H        1.9300    -3.2690     0.5490 H     1 <1>   0.0800 
 34 H       -3.8360     0.5750    -1.1480 H     1 <1>   0.1500 
 35 H        4.2720    -3.2590    -0.1190 H     1 <1>   0.0800 
 36 H        3.8590    -2.6960    -1.7140 H     1 <1>   0.0800 
 37 H       -2.5490    -1.8980     1.2110 H     1 <1>   0.0800 
 38 H       -2.8080    -2.9740    -0.1570 H     1 <1>   0.0800 
 39 H       -3.8850    -1.6010     0.0920 H     1 <1>   0.0800 
 40 H       -3.7590     2.9530    -0.5960 H     1 <1>   0.1500 
 41 H        5.1100     0.2260     1.4860 H     1 <1>   0.3700 
 42 H       -2.3550     6.0430     0.7590 H     1 <1>   0.0800 
 43 H       -3.5950     4.8000     0.8870 H     1 <1>   0.0800 
 44 H       -2.8160     5.1290    -0.6730 H     1 <1>   0.0800 
 45 H        7.4520     0.6620    -0.3630 H     1 <1>   0.1000 
 46 H        8.8010     0.7680     1.7690 H     1 <1>   0.1000 
 47 H        7.3350     0.3790     2.7210 H     1 <1>   0.1000 
 48 H        6.2190     2.4860     1.8180 H     1 <1>   0.1000 
 49 H        7.7000     2.8470     0.8780 H     1 <1>   0.1000 
@<TRIPOS>BOND
  1   1   2  2   
  2   1   3  2   
  3   1   4  am  
  4   1   5  1   
  5   4   6  1   
  6   4   7  1   
  7   5   8  ar  
  8   5   9  ar  
  9   6  10  1   
 10   6  26  1   
 11   6  27  1   
 12   7  11  1   
 13   7  28  1   
 14   7  29  1   
 15   8  12  1   
 16   8  13  ar  
 17   9  14  ar  
 18   9  30  1   
 19  10  15  1   
 20  10  16  1   
 21  10  31  1   
 22  11  16  1   
 23  11  32  1   
 24  11  33  1   
 25  12  17  1   
 26  13  18  ar  
 27  13  34  1   
 28  14  18  ar  
 29  14  19  1   
 30  15  20  2   
 31  15  21  am  
 32  16  35  1   
 33  16  36  1   
 34  17  37  1   
 35  17  38  1   
 36  17  39  1   
 37  18  40  1   
 38  19  22  1   
 39  21  23  1   
 40  21  41  1   
 41  22  42  1   
 42  22  43  1   
 43  22  44  1   
 44  23  24  1   
 45  23  25  1   
 46  23  45  1   
 47  24  25  1   
 48  24  46  1   
 49  24  47  1   
 50  25  48  1   
 51  25  49  1   
@<TRIPOS>SUBSTRUCTURE
  1 ****   1 GROUP 4 **** **** 0

# MOE 2024.06 (io_trps.svl 2023.06)
