@<TRIPOS>MOLECULE
1-Methanesulfonyl-piperidine-3-carboxylic acid (5-chloro-2-methyl-phenyl)-amide
40 41 1 0 0 
SMALL
USER_CHARGES


@<TRIPOS>ATOM
  1 CL       1.2430    -2.5180     2.6710 Cl    1 <1>  -0.1770 
  2 C        0.3470    -2.8900     1.2210 C.ar  1 <1>   0.1770 
  3 C       -0.9330    -3.3920     1.3230 C.ar  1 <1>  -0.1500 
  4 C        0.9390    -2.6760    -0.0080 C.ar  1 <1>  -0.1500 
  5 C       -1.6580    -3.6920     0.1730 C.ar  1 <1>   0.1170 
  6 C        0.2280    -2.9750    -1.1570 C.ar  1 <1>  -0.1500 
  7 N       -2.9590    -4.2150     0.2290 N.am  1 <1>  -0.5470 
  8 C       -1.0620    -3.4800    -1.0750 C.ar  1 <1>  -0.1430 
  9 C       -3.9180    -4.1860     1.2040 C.2   1 <1>   0.5690 
 10 C       -1.8090    -3.7920    -2.3680 C.3   1 <1>  -0.0960 
 11 O       -3.7760    -3.6530     2.2770 O.2   1 <1>  -0.5700 
 12 C       -5.2510    -4.8230     0.8590 C.3   1 <1>  -0.0190 
 13 C       -6.1900    -3.7310     0.3300 C.3   1 <1>   0.1960 
 14 C       -5.9290    -5.5680     2.0220 C.3   1 <1>  -0.1600 
 15 N       -7.4460    -4.3120    -0.1620 N.am  1 <1>  -0.8490 
 16 C       -7.2840    -6.1240     1.5550 C.3   1 <1>  -0.1600 
 17 S       -7.3410    -5.0790    -1.6740 S.o2  1 <1>   1.3330 
 18 C       -8.1630    -5.0460     0.8930 C.3   1 <1>   0.1960 
 19 O       -6.0040    -4.8790    -2.1960 O.2   1 <1>  -0.6500 
 20 O       -7.8780    -6.4150    -1.5680 O.2   1 <1>  -0.6500 
 21 C       -8.4650    -4.1040    -2.6480 C.3   1 <1>  -0.1350 
 22 H       -1.3530    -3.5480     2.2980 H     1 <1>   0.1500 
 23 H        1.9380    -2.2830    -0.0600 H     1 <1>   0.1500 
 24 H        0.6900    -2.8080    -2.1150 H     1 <1>   0.1500 
 25 H       -3.2680    -4.6300    -0.6500 H     1 <1>   0.3700 
 26 H       -2.0060    -4.8470    -2.4380 H     1 <1>   0.0800 
 27 H       -1.2310    -3.5020    -3.2280 H     1 <1>   0.0800 
 28 H       -2.7410    -3.2560    -2.3980 H     1 <1>   0.0800 
 29 H       -5.0660    -5.5400     0.0810 H     1 <1>   0.0800 
 30 H       -5.7100    -3.1700    -0.4550 H     1 <1>   0.0800 
 31 H       -6.4090    -3.0400     1.1280 H     1 <1>   0.0800 
 32 H       -6.0820    -4.8910     2.8460 H     1 <1>   0.0800 
 33 H       -5.2980    -6.3710     2.3640 H     1 <1>   0.0800 
 34 H       -7.8110    -6.5370     2.3970 H     1 <1>   0.0800 
 35 H       -7.1230    -6.9270     0.8580 H     1 <1>   0.0800 
 36 H       -9.0560    -5.4960     0.4890 H     1 <1>   0.0800 
 37 H       -8.4700    -4.3420     1.6480 H     1 <1>   0.0800 
 38 H       -8.1450    -3.0810    -2.6660 H     1 <1>   0.0800 
 39 H       -9.4510    -4.1520    -2.2310 H     1 <1>   0.0800 
 40 H       -8.4960    -4.4760    -3.6530 H     1 <1>   0.0800 
@<TRIPOS>BOND
  1   1   2  1   
  2   2   3  ar  
  3   2   4  ar  
  4   3   5  ar  
  5   3  22  1   
  6   4   6  ar  
  7   4  23  1   
  8   5   7  1   
  9   5   8  ar  
 10   6   8  ar  
 11   6  24  1   
 12   7   9  am  
 13   7  25  1   
 14   8  10  1   
 15   9  11  2   
 16   9  12  1   
 17  10  26  1   
 18  10  27  1   
 19  10  28  1   
 20  12  13  1   
 21  12  14  1   
 22  12  29  1   
 23  13  15  1   
 24  13  30  1   
 25  13  31  1   
 26  14  16  1   
 27  14  32  1   
 28  14  33  1   
 29  15  17  am  
 30  15  18  1   
 31  16  18  1   
 32  16  34  1   
 33  16  35  1   
 34  17  19  2   
 35  17  20  2   
 36  17  21  1   
 37  18  36  1   
 38  18  37  1   
 39  21  38  1   
 40  21  39  1   
 41  21  40  1   
@<TRIPOS>SUBSTRUCTURE
  1 ****   7 GROUP 4 **** **** 0

# MOE 2024.06 (io_trps.svl 2023.06)
