@<TRIPOS>MOLECULE
N-Isopropyl-2-(3-methoxy-phenoxy)-N-(3-p-tolyl-[1,2,4]oxadiazol-5-ylmethyl)-acet
54 56 1 0 0 
SMALL
USER_CHARGES


@<TRIPOS>ATOM
  1 O        1.2280     0.7100     1.3690 O.2   1 <1>  -0.5700 
  2 C        0.7760     1.7150     0.8710 C.2   1 <1>   0.5690 
  3 N        1.4400     2.4120    -0.1200 N.am  1 <1>  -0.6600 
  4 C       -0.5570     2.1980     1.4410 C.3   1 <1>   0.1810 
  5 C        2.8070     2.0640    -0.6070 C.3   1 <1>   0.2200 
  6 C        0.8930     3.6580    -0.7490 C.3   1 <1>   0.3200 
  7 O       -1.5840     2.1650     0.4610 O.3   1 <1>  -0.3630 
  8 C        2.8150     0.6910    -1.2790 C.3   1 <1>  -0.2400 
  9 C        3.8310     2.1680     0.5230 C.3   1 <1>  -0.2400 
 10 C        1.5390     4.9010    -0.1580 C.2   1 <1>   0.2980 
 11 C       -2.8300     2.6280     0.7330 C.ar  1 <1>   0.0820 
 12 O        1.2540     5.2190     1.0770 O.3   1 <1>  -0.0190 
 13 N        2.3510     5.6790    -0.7480 N.2   1 <1>  -0.5650 
 14 C       -3.7480     2.5860    -0.3020 C.ar  1 <1>  -0.1500 
 15 C       -3.2160     3.1320     1.9720 C.ar  1 <1>  -0.1500 
 16 N        1.9470     6.2910     1.2940 N.2   1 <1>  -0.4100 
 17 C        2.6000     6.5670     0.2200 C.2   1 <1>   0.4620 
 18 C       -5.0430     3.0440    -0.1220 C.ar  1 <1>   0.0820 
 19 C       -4.5090     3.5920     2.1580 C.ar  1 <1>  -0.1500 
 20 C        3.5050     7.6910     0.0430 C.ar  1 <1>   0.0540 
 21 O       -5.8750     2.9640    -1.1920 O.3   1 <1>  -0.3630 
 22 C       -5.4220     3.5510     1.1180 C.ar  1 <1>  -0.1500 
 23 C        4.1660     7.9200    -1.1650 C.ar  1 <1>  -0.1500 
 24 C        3.7520     8.5920     1.0800 C.ar  1 <1>  -0.1500 
 25 C       -7.2250     3.3610    -1.1020 C.3   1 <1>   0.0400 
 26 C        5.0280     8.9890    -1.3290 C.ar  1 <1>  -0.1500 
 27 C        4.6130     9.6630     0.9210 C.ar  1 <1>  -0.1500 
 28 C        5.2580     9.8680    -0.2860 C.ar  1 <1>  -0.1440 
 29 C        6.2020    11.0440    -0.4640 C.3   1 <1>  -0.0970 
 30 H       -0.4510     3.2050     1.7980 H     1 <1>   0.0800 
 31 H       -0.8510     1.5560     2.2520 H     1 <1>   0.0800 
 32 H        3.0990     2.7820    -1.3570 H     1 <1>   0.0800 
 33 H       -0.1700     3.7320    -0.6290 H     1 <1>   0.0800 
 34 H        1.0860     3.6320    -1.8060 H     1 <1>   0.0800 
 35 H        2.6350    -0.0910    -0.5640 H     1 <1>   0.0800 
 36 H        3.7730     0.5130    -1.7310 H     1 <1>   0.0800 
 37 H        2.0620     0.6490    -2.0450 H     1 <1>   0.0800 
 38 H        3.6610     1.4150     1.2720 H     1 <1>   0.0800 
 39 H        3.7850     3.1400     0.9790 H     1 <1>   0.0800 
 40 H        4.8210     2.0260     0.1300 H     1 <1>   0.0800 
 41 H       -3.4570     2.1920    -1.2580 H     1 <1>   0.1500 
 42 H       -2.5360     3.1750     2.8010 H     1 <1>   0.1500 
 43 H       -4.8070     3.9830     3.1150 H     1 <1>   0.1500 
 44 H       -6.4170     3.9150     1.2900 H     1 <1>   0.1500 
 45 H        4.0040     7.2510    -1.9920 H     1 <1>   0.1500 
 46 H        3.2630     8.4530     2.0280 H     1 <1>   0.1500 
 47 H       -7.6870     3.1920    -2.0580 H     1 <1>   0.0800 
 48 H       -7.2670     4.4070    -0.8560 H     1 <1>   0.0800 
 49 H       -7.7150     2.7670    -0.3500 H     1 <1>   0.0800 
 50 H        5.5180     9.1350    -2.2760 H     1 <1>   0.1500 
 51 H        4.7780    10.3370     1.7430 H     1 <1>   0.1500 
 52 H        5.6560    11.8960    -0.8280 H     1 <1>   0.0800 
 53 H        6.9770    10.8000    -1.1680 H     1 <1>   0.0800 
 54 H        6.6640    11.3010     0.4720 H     1 <1>   0.0800 
@<TRIPOS>BOND
  1   1   2  2   
  2   2   3  am  
  3   2   4  1   
  4   3   5  1   
  5   3   6  1   
  6   4   7  1   
  7   4  30  1   
  8   4  31  1   
  9   5   8  1   
 10   5   9  1   
 11   5  32  1   
 12   6  10  1   
 13   6  33  1   
 14   6  34  1   
 15   7  11  1   
 16   8  35  1   
 17   8  36  1   
 18   8  37  1   
 19   9  38  1   
 20   9  39  1   
 21   9  40  1   
 22  10  12  1   
 23  10  13  2   
 24  11  14  ar  
 25  11  15  ar  
 26  12  16  1   
 27  13  17  1   
 28  14  18  ar  
 29  14  41  1   
 30  15  19  ar  
 31  15  42  1   
 32  16  17  2   
 33  17  20  1   
 34  18  21  1   
 35  18  22  ar  
 36  19  22  ar  
 37  19  43  1   
 38  20  23  ar  
 39  20  24  ar  
 40  21  25  1   
 41  22  44  1   
 42  23  26  ar  
 43  23  45  1   
 44  24  27  ar  
 45  24  46  1   
 46  25  47  1   
 47  25  48  1   
 48  25  49  1   
 49  26  28  ar  
 50  26  50  1   
 51  27  28  ar  
 52  27  51  1   
 53  28  29  1   
 54  29  52  1   
 55  29  53  1   
 56  29  54  1   
@<TRIPOS>SUBSTRUCTURE
  1 ****  10 GROUP 4 **** **** 0

# MOE 2024.06 (io_trps.svl 2023.06)
