@<TRIPOS>MOLECULE
1-(4-Methoxy-2,3-dimethyl-benzenesulfonyl)-2-methyl-1H-imidazole
35 36 1 0 0 
SMALL
USER_CHARGES


@<TRIPOS>ATOM
  1 S       -0.2930    -1.1250     0.3700 S.o2  1 <1>   1.2950 
  2 O       -0.6880    -1.9990    -0.7180 O.2   1 <1>  -0.6500 
  3 O       -0.3200    -1.6600     1.7180 O.2   1 <1>  -0.6500 
  4 N       -1.3100     0.3220     0.3060 N.pl3 1 <1>   0.3170 
  5 C        1.3660    -0.4620     0.0130 C.ar  1 <1>  -0.0090 
  6 C       -1.4210     1.2430    -0.6950 C.2   1 <1>   0.0060 
  7 C       -2.1340     0.8030     1.2710 C.2   1 <1>  -0.3020 
  8 C        1.9630     0.6050     0.7010 C.ar  1 <1>  -0.1440 
  9 C        2.0780    -1.0450    -1.0280 C.ar  1 <1>  -0.1500 
 10 N       -2.2130     2.2270    -0.4220 N.2   1 <1>  -0.5650 
 11 C       -0.6930     1.1470    -2.0240 C.3   1 <1>  -0.0600 
 12 C       -2.6670     1.9520     0.8120 C.2   1 <1>   0.0770 
 13 C        3.2060     1.1010     0.2960 C.ar  1 <1>  -0.1430 
 14 C        1.2670     1.2440     1.9090 C.3   1 <1>  -0.0970 
 15 C        3.3190    -0.5860    -1.4110 C.ar  1 <1>  -0.1500 
 16 C        3.8920     0.4940    -0.7560 C.ar  1 <1>   0.0830 
 17 C        3.8390     2.3120     0.9920 C.3   1 <1>  -0.0970 
 18 O        5.1130     0.9780    -1.1050 O.3   1 <1>  -0.3630 
 19 C        5.9060     0.3840    -2.1090 C.3   1 <1>   0.0400 
 20 H       -2.2820     0.2980     2.2090 H     1 <1>   0.1500 
 21 H        1.6570    -1.8820    -1.5610 H     1 <1>   0.1500 
 22 H        0.3540     1.3550    -1.8960 H     1 <1>   0.0800 
 23 H       -1.0960     1.8720    -2.7090 H     1 <1>   0.0800 
 24 H       -0.8170     0.1710    -2.4580 H     1 <1>   0.0800 
 25 H       -3.3660     2.6080     1.3080 H     1 <1>   0.1500 
 26 H        0.6150     0.5620     2.4180 H     1 <1>   0.0800 
 27 H        0.7020     2.1060     1.5980 H     1 <1>   0.0800 
 28 H        1.9830     1.5550     2.6470 H     1 <1>   0.0800 
 29 H        3.8200    -1.0820    -2.2210 H     1 <1>   0.1500 
 30 H        3.1000     3.0590     1.2130 H     1 <1>   0.0800 
 31 H        4.5800     2.7890     0.3790 H     1 <1>   0.0800 
 32 H        4.3110     1.9990     1.9060 H     1 <1>   0.0800 
 33 H        6.8280     0.9330    -2.1740 H     1 <1>   0.0800 
 34 H        5.3820     0.4400    -3.0460 H     1 <1>   0.0800 
 35 H        6.1080    -0.6370    -1.8370 H     1 <1>   0.0800 
@<TRIPOS>BOND
  1   1   2  2   
  2   1   3  2   
  3   1   4  1   
  4   1   5  1   
  5   4   6  1   
  6   4   7  1   
  7   5   8  ar  
  8   5   9  ar  
  9   6  10  2   
 10   6  11  1   
 11   7  12  2   
 12   7  20  1   
 13   8  13  ar  
 14   8  14  1   
 15   9  15  ar  
 16   9  21  1   
 17  10  12  1   
 18  11  22  1   
 19  11  23  1   
 20  11  24  1   
 21  12  25  1   
 22  13  16  ar  
 23  13  17  1   
 24  14  26  1   
 25  14  27  1   
 26  14  28  1   
 27  15  16  ar  
 28  15  29  1   
 29  16  18  1   
 30  17  30  1   
 31  17  31  1   
 32  17  32  1   
 33  18  19  1   
 34  19  33  1   
 35  19  34  1   
 36  19  35  1   
@<TRIPOS>SUBSTRUCTURE
  1 ****   5 GROUP 4 **** **** 0

# MOE 2024.06 (io_trps.svl 2023.06)
