@<TRIPOS>MOLECULE
3-(3-Hydroxy-isoxazol-5-yl)-propionic acid
17 17 1 0 0 
SMALL
USER_CHARGES


@<TRIPOS>ATOM
  1 O       -0.7250    -1.2560    -1.1640 O.co2 1 <1>  -0.9000 
  2 C       -1.2480    -1.1230    -0.0560 C.2   1 <1>   0.9060 
  3 O       -0.7430    -1.5440     0.9870 O.co2 1 <1>  -0.9000 
  4 C       -2.5850    -0.4410     0.0240 C.3   1 <1>  -0.2660 
  5 C       -3.7070    -1.4720    -0.1240 C.3   1 <1>   0.0200 
  6 C       -5.0860    -0.8380    -0.0510 C.2   1 <1>  -0.0400 
  7 O       -6.1540    -1.5940    -0.1610 O.3   1 <1>  -0.0190 
  8 C       -5.4920     0.4310     0.1160 C.2   1 <1>  -0.1500 
  9 N       -7.2610    -0.8980    -0.0780 N.2   1 <1>  -0.4100 
 10 C       -6.8740     0.3110     0.0870 C.2   1 <1>   0.3510 
 11 O       -7.7410     1.3190     0.2150 O.3   1 <1>  -0.5120 
 12 H       -2.6370     0.2880    -0.7620 H     1 <1>   0.0800 
 13 H       -2.6520     0.0560     0.9730 H     1 <1>   0.0800 
 14 H       -3.6130    -2.2070     0.6570 H     1 <1>   0.0800 
 15 H       -3.5990    -1.9760    -1.0680 H     1 <1>   0.0800 
 16 H       -4.9330     1.3380     0.2420 H     1 <1>   0.1500 
 17 H       -8.6370     0.9460     0.1570 H     1 <1>   0.4500 
@<TRIPOS>BOND
  1   1   2  ar  
  2   2   3  ar  
  3   2   4  1   
  4   4   5  1   
  5   4  12  1   
  6   4  13  1   
  7   5   6  1   
  8   5  14  1   
  9   5  15  1   
 10   6   7  1   
 11   6   8  2   
 12   7   9  1   
 13   8  10  1   
 14   8  16  1   
 15   9  10  2   
 16  10  11  1   
 17  11  17  1   
@<TRIPOS>SUBSTRUCTURE
  1 ****   6 GROUP 4 **** **** 0

# MOE 2024.06 (io_trps.svl 2023.06)
