@<TRIPOS>MOLECULE
3-(3,4-Dimethoxy-benzoylamino)-4-(4-methyl-piperazin-1-yl)-benzoic acid methyl e
58 60 1 0 0 
SMALL
USER_CHARGES


@<TRIPOS>ATOM
  1 O        0.0880     0.0030    -1.0540 O.2   1 <1>  -0.5700 
  2 C       -0.5310    -1.0130    -0.8040 C.2   1 <1>   0.6340 
  3 O       -1.8600    -0.9390    -0.6710 O.3   1 <1>  -0.4300 
  4 C        0.1010    -2.3060    -0.6450 C.ar  1 <1>   0.0860 
  5 C       -2.5550     0.2850    -0.8090 C.3   1 <1>   0.0400 
  6 C        1.4900    -2.4390    -0.7000 C.ar  1 <1>  -0.1500 
  7 C       -0.6300    -3.4750    -0.4350 C.ar  1 <1>  -0.1500 
  8 C        2.1400    -3.6530    -0.5560 C.ar  1 <1>   0.1170 
  9 C       -0.0050    -4.6970    -0.2950 C.ar  1 <1>  -0.1500 
 10 N        3.5470    -3.6260    -0.6460 N.am  1 <1>  -0.5470 
 11 C        1.3770    -4.8260    -0.3530 C.ar  1 <1>   0.1000 
 12 C        4.4780    -4.1820     0.1900 C.2   1 <1>   0.5440 
 13 N        1.8970    -6.1180    -0.2050 N.pl3 1 <1>  -0.8380 
 14 O        4.1340    -4.5740     1.2910 O.2   1 <1>  -0.5700 
 15 C        5.8430    -4.3980    -0.2580 C.ar  1 <1>   0.0860 
 16 C        1.7000    -6.8220     1.1060 C.3   1 <1>   0.2090 
 17 C        2.7810    -6.7480    -1.2380 C.3   1 <1>   0.2090 
 18 C        6.7860    -4.9450     0.6110 C.ar  1 <1>  -0.1500 
 19 C        6.2670    -4.1440    -1.5650 C.ar  1 <1>  -0.1500 
 20 C        2.8460    -7.7980     1.4570 C.3   1 <1>   0.3430 
 21 C        4.0650    -7.3960    -0.6510 C.3   1 <1>   0.3430 
 22 C        8.0620    -5.2830     0.2070 C.ar  1 <1>   0.0830 
 23 C        7.5470    -4.4570    -1.9860 C.ar  1 <1>  -0.1500 
 24 N        4.1340    -7.3440     0.8500 N.4   1 <1>  -0.9590 
 25 O        8.8340    -5.8590     1.1680 O.3   1 <1>  -0.3630 
 26 C        8.4600    -5.0460    -1.1170 C.ar  1 <1>   0.0830 
 27 C        5.3460    -8.0070     1.4120 C.3   1 <1>   0.2630 
 28 C       10.2070    -5.5410     1.2650 C.3   1 <1>   0.0400 
 29 O        9.7030    -5.4130    -1.5260 O.3   1 <1>  -0.3630 
 30 C       10.1890    -5.1580    -2.8270 C.3   1 <1>   0.0400 
 31 H       -3.6030     0.1010    -0.6590 H     1 <1>   0.0800 
 32 H       -2.3830     0.6730    -1.7980 H     1 <1>   0.0800 
 33 H       -2.1900     0.9770    -0.0690 H     1 <1>   0.0800 
 34 H        2.0740    -1.5490    -0.8520 H     1 <1>   0.1500 
 35 H       -1.7040    -3.4260    -0.3840 H     1 <1>   0.1500 
 36 H       -0.6030    -5.5770    -0.1450 H     1 <1>   0.1500 
 37 H        3.9120    -2.9530    -1.3190 H     1 <1>   0.3700 
 38 H        0.7660    -7.3570     1.0920 H     1 <1>   0.0800 
 39 H        1.6350    -6.0790     1.8840 H     1 <1>   0.0800 
 40 H        3.0580    -6.0120    -1.9730 H     1 <1>   0.0800 
 41 H        2.2160    -7.5050    -1.7530 H     1 <1>   0.0800 
 42 H        6.5240    -5.1200     1.6390 H     1 <1>   0.1500 
 43 H        5.5940    -3.7050    -2.2800 H     1 <1>   0.1500 
 44 H        2.6000    -8.7800     1.0910 H     1 <1>   0.0800 
 45 H        2.9370    -7.8550     2.5290 H     1 <1>   0.0800 
 46 H        4.9220    -6.8910    -1.0640 H     1 <1>   0.0800 
 47 H        4.1090    -8.4200    -0.9800 H     1 <1>   0.0800 
 48 H        7.8140    -4.2400    -3.0040 H     1 <1>   0.1500 
 49 H        4.1540    -6.3250     1.0860 H     1 <1>   0.4500 
 50 H        5.3290    -9.0640     1.2020 H     1 <1>   0.0800 
 51 H        5.3850    -7.8660     2.4800 H     1 <1>   0.0800 
 52 H        6.2390    -7.5820     0.9810 H     1 <1>   0.0800 
 53 H       10.5300    -5.7490     2.2690 H     1 <1>   0.0800 
 54 H       10.3470    -4.4980     1.0410 H     1 <1>   0.0800 
 55 H       10.7570    -6.1550     0.5750 H     1 <1>   0.0800 
 56 H       11.1990    -5.5220    -2.8830 H     1 <1>   0.0800 
 57 H       10.1740    -4.0980    -3.0050 H     1 <1>   0.0800 
 58 H        9.5750    -5.6800    -3.5390 H     1 <1>   0.0800 
@<TRIPOS>BOND
  1   1   2  2   
  2   2   3  1   
  3   2   4  1   
  4   3   5  1   
  5   4   6  ar  
  6   4   7  ar  
  7   5  31  1   
  8   5  32  1   
  9   5  33  1   
 10   6   8  ar  
 11   6  34  1   
 12   7   9  ar  
 13   7  35  1   
 14   8  10  1   
 15   8  11  ar  
 16   9  11  ar  
 17   9  36  1   
 18  10  12  am  
 19  10  37  1   
 20  11  13  1   
 21  12  14  2   
 22  12  15  1   
 23  13  16  1   
 24  13  17  1   
 25  15  18  ar  
 26  15  19  ar  
 27  16  20  1   
 28  16  38  1   
 29  16  39  1   
 30  17  21  1   
 31  17  40  1   
 32  17  41  1   
 33  18  22  ar  
 34  18  42  1   
 35  19  23  ar  
 36  19  43  1   
 37  20  24  1   
 38  20  44  1   
 39  20  45  1   
 40  21  24  1   
 41  21  46  1   
 42  21  47  1   
 43  22  25  1   
 44  22  26  ar  
 45  23  26  ar  
 46  23  48  1   
 47  24  27  1   
 48  24  49  1   
 49  25  28  1   
 50  26  29  1   
 51  27  50  1   
 52  27  51  1   
 53  27  52  1   
 54  28  53  1   
 55  28  54  1   
 56  28  55  1   
 57  29  30  1   
 58  30  56  1   
 59  30  57  1   
 60  30  58  1   
@<TRIPOS>SUBSTRUCTURE
  1 ****  12 GROUP 4 **** **** 0

# MOE 2024.06 (io_trps.svl 2023.06)
