@<TRIPOS>MOLECULE
N-[5-(2-Methoxy-ethylsulfanyl)-[1,3,4]thiadiazol-2-yl]-2-methyl-benzamide
35 36 1 0 0 
SMALL
USER_CHARGES


@<TRIPOS>ATOM
  1 S       -0.6380    -0.2190    -1.0140 S.3   1 <1>  -0.0800 
  2 C        0.0500     1.1820    -0.2840 C.2   1 <1>   0.4340 
  3 C       -1.9860     0.0140     0.0570 C.2   1 <1>   0.4420 
  4 S        1.6480     1.7020    -0.8870 S.3   1 <1>  -0.2860 
  5 N       -0.6620     1.7120     0.6240 N.2   1 <1>  -0.3380 
  6 N       -1.8380     1.0380     0.8210 N.2   1 <1>  -0.3380 
  7 N       -3.0100    -0.9060    -0.0480 N.am  1 <1>  -0.4940 
  8 C        2.0150     3.2010     0.1300 C.3   1 <1>   0.0700 
  9 C       -4.2060    -0.9750     0.6200 C.2   1 <1>   0.5440 
 10 C        3.3750     3.7440    -0.2980 C.3   1 <1>   0.1200 
 11 O       -4.5140    -0.1250     1.4270 O.2   1 <1>  -0.5700 
 12 C       -5.0880    -2.0850     0.3250 C.ar  1 <1>   0.0860 
 13 O        3.6540     4.8730     0.4660 O.3   1 <1>  -0.5600 
 14 C       -6.3550    -1.9130    -0.2470 C.ar  1 <1>  -0.1430 
 15 C       -4.6650    -3.3870     0.5980 C.ar  1 <1>  -0.1500 
 16 C        4.8760     5.4670     0.1690 C.3   1 <1>   0.0400 
 17 C       -7.1460    -3.0120    -0.5380 C.ar  1 <1>  -0.1500 
 18 C       -6.8860    -0.5180    -0.5580 C.3   1 <1>  -0.0970 
 19 C       -5.4570    -4.4810     0.3060 C.ar  1 <1>  -0.1500 
 20 C       -6.7010    -4.2930    -0.2660 C.ar  1 <1>  -0.1500 
 21 H       -2.8700    -1.6310    -0.7450 H     1 <1>   0.3700 
 22 H        2.0200     2.8970     1.1620 H     1 <1>   0.0800 
 23 H        1.2310     3.9140    -0.0530 H     1 <1>   0.0800 
 24 H        3.3550     4.0250    -1.3370 H     1 <1>   0.0800 
 25 H        4.1430     3.0100    -0.1240 H     1 <1>   0.0800 
 26 H       -3.7040    -3.5430     1.0550 H     1 <1>   0.1500 
 27 H        4.9950     6.3230     0.8090 H     1 <1>   0.0800 
 28 H        4.8790     5.7800    -0.8610 H     1 <1>   0.0800 
 29 H        5.6690     4.7620     0.3550 H     1 <1>   0.0800 
 30 H       -8.1200    -2.8810    -0.9770 H     1 <1>   0.1500 
 31 H       -6.1930     0.0180    -1.1810 H     1 <1>   0.0800 
 32 H       -7.0220     0.0330     0.3570 H     1 <1>   0.0800 
 33 H       -7.8320    -0.5650    -1.0670 H     1 <1>   0.0800 
 34 H       -5.1120    -5.4770     0.5250 H     1 <1>   0.1500 
 35 H       -7.3240    -5.1410    -0.4960 H     1 <1>   0.1500 
@<TRIPOS>BOND
  1   1   2  1   
  2   1   3  1   
  3   2   4  1   
  4   2   5  2   
  5   3   6  2   
  6   3   7  1   
  7   4   8  1   
  8   5   6  1   
  9   7   9  am  
 10   7  21  1   
 11   8  10  1   
 12   8  22  1   
 13   8  23  1   
 14   9  11  2   
 15   9  12  1   
 16  10  13  1   
 17  10  24  1   
 18  10  25  1   
 19  12  14  ar  
 20  12  15  ar  
 21  13  16  1   
 22  14  17  ar  
 23  14  18  1   
 24  15  19  ar  
 25  15  26  1   
 26  16  27  1   
 27  16  28  1   
 28  16  29  1   
 29  17  20  ar  
 30  17  30  1   
 31  18  31  1   
 32  18  32  1   
 33  18  33  1   
 34  19  20  ar  
 35  19  34  1   
 36  20  35  1   
@<TRIPOS>SUBSTRUCTURE
  1 ****   3 GROUP 4 **** **** 0

# MOE 2024.06 (io_trps.svl 2023.06)
