@<TRIPOS>MOLECULE
1-(5-Chloro-2-methoxy-benzenesulfonyl)-2-propyl-1H-imidazole
35 36 1 0 0 
SMALL
USER_CHARGES


@<TRIPOS>ATOM
  1 CL      -0.6040    -0.1290     1.1330 Cl    1 <1>  -0.1770 
  2 C       -1.3780     1.3280     0.5650 C.ar  1 <1>   0.1770 
  3 C       -2.6690     1.6090     0.9650 C.ar  1 <1>  -0.1500 
  4 C       -0.6870     2.1770    -0.2750 C.ar  1 <1>  -0.1500 
  5 C       -3.3100     2.7610     0.5210 C.ar  1 <1>  -0.0090 
  6 C       -1.3060     3.3310    -0.7210 C.ar  1 <1>  -0.1500 
  7 S       -5.0050     3.1300     1.0400 S.o2  1 <1>   1.2950 
  8 C       -2.6110     3.6230    -0.3230 C.ar  1 <1>   0.0830 
  9 O       -4.9890     4.3000     1.8950 O.2   1 <1>  -0.6500 
 10 O       -5.5610     1.9080     1.5880 O.2   1 <1>  -0.6500 
 11 N       -5.8240     3.4530    -0.5000 N.pl3 1 <1>   0.3170 
 12 O       -3.2520     4.7430    -0.7350 O.3   1 <1>  -0.3630 
 13 C       -6.3540     4.6070    -1.0080 C.2   1 <1>   0.0070 
 14 C       -5.9880     2.5650    -1.5150 C.2   1 <1>  -0.3020 
 15 C       -2.7830     5.5290    -1.8100 C.3   1 <1>   0.0400 
 16 N       -6.8000     4.4980    -2.2190 N.2   1 <1>  -0.5650 
 17 C       -6.4340     5.9280    -0.2550 C.3   1 <1>   0.0200 
 18 C       -6.5760     3.2150    -2.5380 C.2   1 <1>   0.0770 
 19 C       -7.6080     5.9320     0.7350 C.3   1 <1>  -0.1600 
 20 C       -7.6900     7.2570     1.5000 C.3   1 <1>  -0.2400 
 21 H       -3.1720     0.9220     1.6250 H     1 <1>   0.1500 
 22 H        0.3190     1.9360    -0.5710 H     1 <1>   0.1500 
 23 H       -0.7570     3.9900    -1.3680 H     1 <1>   0.1500 
 24 H       -5.6820     1.5370    -1.4430 H     1 <1>   0.1500 
 25 H       -3.5280     6.2740    -2.0270 H     1 <1>   0.0800 
 26 H       -2.6390     4.9000    -2.6700 H     1 <1>   0.0800 
 27 H       -1.8640     6.0070    -1.5210 H     1 <1>   0.0800 
 28 H       -6.5820     6.7180    -0.9700 H     1 <1>   0.0800 
 29 H       -5.5080     6.1300     0.2520 H     1 <1>   0.0800 
 30 H       -6.8570     2.8230    -3.5030 H     1 <1>   0.1500 
 31 H       -7.4970     5.1270     1.4410 H     1 <1>   0.0800 
 32 H       -8.5250     5.7740     0.1930 H     1 <1>   0.0800 
 33 H       -6.7910     7.4170     2.0690 H     1 <1>   0.0800 
 34 H       -8.5240     7.2360     2.1800 H     1 <1>   0.0800 
 35 H       -7.8250     8.0790     0.8190 H     1 <1>   0.0800 
@<TRIPOS>BOND
  1   1   2  1   
  2   2   3  ar  
  3   2   4  ar  
  4   3   5  ar  
  5   3  21  1   
  6   4   6  ar  
  7   4  22  1   
  8   5   7  1   
  9   5   8  ar  
 10   6   8  ar  
 11   6  23  1   
 12   7   9  2   
 13   7  10  2   
 14   7  11  1   
 15   8  12  1   
 16  11  13  1   
 17  11  14  1   
 18  12  15  1   
 19  13  16  2   
 20  13  17  1   
 21  14  18  2   
 22  14  24  1   
 23  15  25  1   
 24  15  26  1   
 25  15  27  1   
 26  16  18  1   
 27  17  19  1   
 28  17  28  1   
 29  17  29  1   
 30  18  30  1   
 31  19  20  1   
 32  19  31  1   
 33  19  32  1   
 34  20  33  1   
 35  20  34  1   
 36  20  35  1   
@<TRIPOS>SUBSTRUCTURE
  1 ****   7 GROUP 4 **** **** 0

# MOE 2024.06 (io_trps.svl 2023.06)
