@<TRIPOS>MOLECULE
7-(3-Fluoro-phenyl)-5-methyl-4,7-dihydro-tetrazolo[1,5-a]pyrimidine-6-carboxylic
43 45 1 0 0 
SMALL
USER_CHARGES


@<TRIPOS>ATOM
  1 F        1.8810     0.2940     1.0680 F     1 <1>  -0.1900 
  2 C        2.1890    -0.7640     0.3670 C.ar  1 <1>   0.1900 
  3 C        1.8340    -2.0070     0.8530 C.ar  1 <1>  -0.1500 
  4 C        2.8570    -0.5980    -0.8300 C.ar  1 <1>  -0.1500 
  5 C        2.1550    -3.1370     0.1110 C.ar  1 <1>  -0.1440 
  6 C        3.1770    -1.7250    -1.5670 C.ar  1 <1>  -0.1500 
  7 C        2.8280    -2.9830    -1.0980 C.ar  1 <1>  -0.1500 
  8 C        1.7670    -4.5260     0.6210 C.3   1 <1>   0.4570 
  9 N        2.9800    -5.2590     1.0520 N.pl3 1 <1>   0.3140 
 10 C        0.9880    -5.3070    -0.4490 C.2   1 <1>  -0.1240 
 11 N        3.8000    -4.9740     2.0500 N.2   1 <1>  -0.4180 
 12 C        3.3900    -6.3840     0.5020 C.2   1 <1>   0.2700 
 13 C        1.4950    -6.4540    -0.9830 C.2   1 <1>  -0.0380 
 14 C       -0.2340    -4.6640    -0.8050 C.2   1 <1>   0.6160 
 15 N        4.6820    -5.9100     2.0550 N.2   1 <1>   0.0000 
 16 N        4.4440    -6.8060     1.0930 N.2   1 <1>  -0.3380 
 17 N        2.6950    -6.9750    -0.5430 N.pl3 1 <1>  -0.5840 
 18 C        0.8220    -7.2670    -2.0760 C.3   1 <1>  -0.1020 
 19 O       -0.3980    -4.2870    -1.9510 O.2   1 <1>  -0.5700 
 20 N       -1.2310    -4.4390     0.1230 N.am  1 <1>  -0.6600 
 21 C       -2.2090    -3.3360    -0.0900 C.3   1 <1>   0.1400 
 22 C       -1.5220    -5.3640     1.2560 C.3   1 <1>   0.1400 
 23 C       -3.5040    -3.8750    -0.6950 C.3   1 <1>  -0.2400 
 24 C       -1.9370    -6.7370     0.7300 C.3   1 <1>  -0.2400 
 25 H        1.3180    -2.0730     1.7940 H     1 <1>   0.1500 
 26 H        3.1160     0.3870    -1.1740 H     1 <1>   0.1500 
 27 H        3.6950    -1.6260    -2.5060 H     1 <1>   0.1500 
 28 H        3.0840    -3.8460    -1.6910 H     1 <1>   0.1500 
 29 H        1.1540    -4.4130     1.4930 H     1 <1>   0.0800 
 30 H        3.0910    -7.8380    -0.9320 H     1 <1>   0.4000 
 31 H        1.4430    -7.2820    -2.9530 H     1 <1>   0.0800 
 32 H       -0.1320    -6.8540    -2.3500 H     1 <1>   0.0800 
 33 H        0.6650    -8.2770    -1.7420 H     1 <1>   0.0800 
 34 H       -1.7850    -2.6040    -0.7580 H     1 <1>   0.0800 
 35 H       -2.4130    -2.8450     0.8460 H     1 <1>   0.0800 
 36 H       -2.3200    -4.9590     1.8550 H     1 <1>   0.0800 
 37 H       -0.6590    -5.4660     1.8880 H     1 <1>   0.0800 
 38 H       -3.2910    -4.3940    -1.6130 H     1 <1>   0.0800 
 39 H       -4.1660    -3.0570    -0.9150 H     1 <1>   0.0800 
 40 H       -4.0010    -4.5380    -0.0110 H     1 <1>   0.0800 
 41 H       -2.7750    -6.6490     0.0620 H     1 <1>   0.0800 
 42 H       -2.2240    -7.3660     1.5540 H     1 <1>   0.0800 
 43 H       -1.1230    -7.2120     0.2160 H     1 <1>   0.0800 
@<TRIPOS>BOND
  1   1   2  1   
  2   2   3  ar  
  3   2   4  ar  
  4   3   5  ar  
  5   3  25  1   
  6   4   6  ar  
  7   4  26  1   
  8   5   7  ar  
  9   5   8  1   
 10   6   7  ar  
 11   6  27  1   
 12   7  28  1   
 13   8   9  1   
 14   8  10  1   
 15   8  29  1   
 16   9  11  1   
 17   9  12  1   
 18  10  13  2   
 19  10  14  1   
 20  11  15  2   
 21  12  16  2   
 22  12  17  1   
 23  13  17  1   
 24  13  18  1   
 25  14  19  2   
 26  14  20  am  
 27  15  16  1   
 28  17  30  1   
 29  18  31  1   
 30  18  32  1   
 31  18  33  1   
 32  20  21  1   
 33  20  22  1   
 34  21  23  1   
 35  21  34  1   
 36  21  35  1   
 37  22  24  1   
 38  22  36  1   
 39  22  37  1   
 40  23  38  1   
 41  23  39  1   
 42  23  40  1   
 43  24  41  1   
 44  24  42  1   
 45  24  43  1   
@<TRIPOS>SUBSTRUCTURE
  1 ****   8 GROUP 4 **** **** 0

# MOE 2024.06 (io_trps.svl 2023.06)
