@<TRIPOS>MOLECULE
[8-(3,4-Dimethyl-phenyl)-1,6,7-trimethyl-2,4-dioxo-1,2,4,8-tetrahydro-imidazo[2,
57 60 1 0 0 
SMALL
USER_CHARGES


@<TRIPOS>ATOM
  1 O        0.7750    -0.1730    -2.4700 O.2   1 <1>  -0.5740 
  2 C        1.6550     0.5780    -2.1080 C.2   1 <1>   0.6870 
  3 N        1.3830     1.9280    -1.9410 N.am  1 <1>  -0.4250 
  4 N        2.9320     0.0870    -1.8620 N.am  1 <1>  -0.4410 
  5 C        2.3630     2.8190    -1.5350 C.2   1 <1>   0.7000 
  6 C       -0.0550     2.3720    -1.9310 C.3   1 <1>   0.1950 
  7 C        3.9060     0.9800    -1.4620 C.2   1 <1>   0.4210 
  8 C        3.2340    -1.3670    -2.0240 C.3   1 <1>   0.0530 
  9 O        2.1030     4.0030    -1.4000 O.2   1 <1>  -0.5740 
 10 C        3.6720     2.3050    -1.2900 C.2   1 <1>   0.2710 
 11 C       -0.7310     2.1080    -0.5900 C.2   1 <1>   0.6560 
 12 N        5.2150     0.7110    -1.1820 N.pl3 1 <1>  -0.7030 
 13 N        4.8920     2.8690    -0.8820 N.pl3 1 <1>  -0.6330 
 14 O       -1.9260     1.9960    -0.5060 O.2   1 <1>  -0.5740 
 15 O        0.0750     2.0040     0.4680 O.3   1 <1>  -0.4350 
 16 C        5.7680     1.8770    -0.8360 C.cat 1 <1>   1.0690 
 17 C        5.5690     4.0110    -0.5010 C.2   1 <1>   0.2350 
 18 C       -0.4000     1.6900     1.7590 C.3   1 <1>   0.1130 
 19 N        6.9800     2.2880    -0.4550 N.pl3 1 <1>  -0.5550 
 20 C        6.8490     3.6540    -0.2400 C.2   1 <1>   0.1580 
 21 C        4.8570     5.3480    -0.4370 C.3   1 <1>  -0.1080 
 22 C       -0.3920     0.1720     1.9190 C.3   1 <1>  -0.2460 
 23 C        8.1130     1.4770    -0.3120 C.ar  1 <1>   0.3060 
 24 C        8.0370     4.4840     0.2160 C.3   1 <1>  -0.1080 
 25 C        8.3590     0.8270     0.8870 C.ar  1 <1>  -0.1560 
 26 C        8.9810     1.2940    -1.3760 C.ar  1 <1>  -0.1560 
 27 C        9.4500    -0.0130     1.0290 C.ar  1 <1>  -0.1500 
 28 C       10.0730     0.4590    -1.2430 C.ar  1 <1>  -0.1560 
 29 C       10.3120    -0.2000    -0.0470 C.ar  1 <1>  -0.1500 
 30 C        9.6850    -0.7090     2.3630 C.3   1 <1>  -0.1030 
 31 C       11.5270    -1.1130     0.0590 C.3   1 <1>  -0.1030 
 32 H       -0.6030     1.8530    -2.6970 H     1 <1>   0.0730 
 33 H       -0.1240     3.4220    -2.1460 H     1 <1>   0.0730 
 34 H        2.3320    -1.9520    -1.9640 H     1 <1>   0.0730 
 35 H        3.8970    -1.7020    -1.2460 H     1 <1>   0.0730 
 36 H        3.6900    -1.5390    -2.9840 H     1 <1>   0.0730 
 37 H        5.7130    -0.1770    -1.2150 H     1 <1>   0.4450 
 38 H       -1.3910     2.0950     1.8880 H     1 <1>   0.0730 
 39 H        0.2600     2.1490     2.4730 H     1 <1>   0.0730 
 40 H        4.4670     5.6040    -1.4060 H     1 <1>   0.0730 
 41 H        5.5260     6.1270    -0.1210 H     1 <1>   0.0730 
 42 H        4.0390     5.2960     0.2580 H     1 <1>   0.0730 
 43 H       -1.0590    -0.2810     1.2070 H     1 <1>   0.0730 
 44 H       -0.7280    -0.0870     2.9070 H     1 <1>   0.0730 
 45 H        0.6010    -0.2160     1.7830 H     1 <1>   0.0730 
 46 H        8.8290     4.4250    -0.5090 H     1 <1>   0.0730 
 47 H        8.4050     4.1170     1.1570 H     1 <1>   0.0730 
 48 H        7.7630     5.5160     0.3360 H     1 <1>   0.0730 
 49 H        7.6930     0.9820     1.7160 H     1 <1>   0.1440 
 50 H        8.8100     1.8030    -2.3070 H     1 <1>   0.1440 
 51 H       10.7430     0.3240    -2.0760 H     1 <1>   0.1440 
 52 H        8.9360    -0.4370     3.0840 H     1 <1>   0.0730 
 53 H       10.6460    -0.4330     2.7590 H     1 <1>   0.0730 
 54 H        9.6570    -1.7760     2.2340 H     1 <1>   0.0730 
 55 H       12.1930    -0.7530     0.8230 H     1 <1>   0.0730 
 56 H       12.0680    -1.1490    -0.8690 H     1 <1>   0.0730 
 57 H       11.2190    -2.1130     0.3070 H     1 <1>   0.0730 
@<TRIPOS>BOND
  1   1   2  2   
  2   2   3  am  
  3   2   4  am  
  4   3   5  am  
  5   3   6  1   
  6   4   7  1   
  7   4   8  1   
  8   5   9  2   
  9   5  10  1   
 10   6  11  1   
 11   6  32  1   
 12   6  33  1   
 13   7  10  2   
 14   7  12  1   
 15   8  34  1   
 16   8  35  1   
 17   8  36  1   
 18  10  13  1   
 19  11  14  2   
 20  11  15  1   
 21  12  16  ar  
 22  12  37  1   
 23  13  16  ar  
 24  13  17  1   
 25  15  18  1   
 26  16  19  ar  
 27  17  20  2   
 28  17  21  1   
 29  18  22  1   
 30  18  38  1   
 31  18  39  1   
 32  19  20  1   
 33  19  23  1   
 34  20  24  1   
 35  21  40  1   
 36  21  41  1   
 37  21  42  1   
 38  22  43  1   
 39  22  44  1   
 40  22  45  1   
 41  23  25  ar  
 42  23  26  ar  
 43  24  46  1   
 44  24  47  1   
 45  24  48  1   
 46  25  27  ar  
 47  25  49  1   
 48  26  28  ar  
 49  26  50  1   
 50  27  29  ar  
 51  27  30  1   
 52  28  29  ar  
 53  28  51  1   
 54  29  31  1   
 55  30  52  1   
 56  30  53  1   
 57  30  54  1   
 58  31  55  1   
 59  31  56  1   
 60  31  57  1   
@<TRIPOS>SUBSTRUCTURE
  1 ****  12 GROUP 4 **** **** 0

# MOE 2024.06 (io_trps.svl 2023.06)
