@<TRIPOS>MOLECULE
1-Cyclohexyl-5-oxo-pyrrolidine-3-carboxylic acid (3,4,5-trimethoxy-phenyl)-amide
55 57 1 0 0 
SMALL
USER_CHARGES


@<TRIPOS>ATOM
  1 O        2.9700    -1.2900    -2.3910 O.2   1 <1>  -0.5700 
  2 C        3.5480    -0.9380    -1.3930 C.2   1 <1>   0.5690 
  3 N        3.2110    -1.2080    -0.1090 N.am  1 <1>  -0.6600 
  4 C        4.7920    -0.1000    -1.4530 C.3   1 <1>  -0.0990 
  5 C        2.0160    -1.9270     0.3910 C.3   1 <1>   0.2200 
  6 C        4.1520    -0.6000     0.8490 C.3   1 <1>   0.1400 
  7 C        5.3530    -0.1970    -0.0210 C.3   1 <1>  -0.0190 
  8 C        2.0170    -3.3820    -0.0940 C.3   1 <1>  -0.1600 
  9 C        0.7310    -1.1980    -0.0230 C.3   1 <1>  -0.1600 
 10 C        6.0610     1.0580     0.4720 C.2   1 <1>   0.5690 
 11 C        0.7750    -4.1320     0.4110 C.3   1 <1>  -0.1600 
 12 C       -0.5120    -1.9450     0.4820 C.3   1 <1>  -0.1600 
 13 O        5.9160     1.3920     1.6220 O.2   1 <1>  -0.5700 
 14 N        6.8600     1.7300    -0.4110 N.am  1 <1>  -0.5470 
 15 C       -0.5140    -3.4040     0.0040 C.3   1 <1>  -0.1600 
 16 C        7.5870     2.9220    -0.2590 C.ar  1 <1>   0.1170 
 17 C        7.2350     3.9100     0.6520 C.ar  1 <1>  -0.1500 
 18 C        8.6960     3.1310    -1.0670 C.ar  1 <1>  -0.1500 
 19 C        7.9720     5.0770     0.7530 C.ar  1 <1>   0.0820 
 20 C        9.4470     4.2900    -0.9830 C.ar  1 <1>   0.0820 
 21 O        7.5700     5.9960     1.6650 O.3   1 <1>  -0.3620 
 22 C        9.0750     5.2910    -0.0770 C.ar  1 <1>   0.0820 
 23 O       10.5130     4.3620    -1.8270 O.3   1 <1>  -0.3630 
 24 C        8.3890     6.1280     2.8050 C.3   1 <1>   0.0400 
 25 O        9.7570     6.4710    -0.0110 O.3   1 <1>  -0.3630 
 26 C       11.7330     4.9040    -1.3660 C.3   1 <1>   0.0400 
 27 C        9.1240     7.5550    -0.6500 C.3   1 <1>   0.0400 
 28 H        4.5020     0.9050    -1.7020 H     1 <1>   0.0800 
 29 H        5.4750    -0.4860    -2.1860 H     1 <1>   0.0800 
 30 H        2.0550    -1.9390     1.4680 H     1 <1>   0.0800 
 31 H        4.4400    -1.3030     1.6120 H     1 <1>   0.0800 
 32 H        3.6850     0.2600     1.3010 H     1 <1>   0.0800 
 33 H        6.0590    -1.0060     0.0170 H     1 <1>   0.0800 
 34 H        2.9040    -3.8780     0.2580 H     1 <1>   0.0800 
 35 H        2.0200    -3.4030    -1.1700 H     1 <1>   0.0800 
 36 H        0.6840    -1.1340    -1.0960 H     1 <1>   0.0800 
 37 H        0.7390    -0.2000     0.3780 H     1 <1>   0.0800 
 38 H        0.8160    -4.2120     1.4840 H     1 <1>   0.0800 
 39 H        0.7680    -5.1290     0.0060 H     1 <1>   0.0800 
 40 H       -1.3980    -1.4480     0.1260 H     1 <1>   0.0800 
 41 H       -0.5320    -1.9220     1.5590 H     1 <1>   0.0800 
 42 H        6.9780     1.2870    -1.3190 H     1 <1>   0.3700 
 43 H       -1.3650    -3.9180     0.4150 H     1 <1>   0.0800 
 44 H       -0.6050    -3.4220    -1.0700 H     1 <1>   0.0800 
 45 H        6.3810     3.7860     1.2910 H     1 <1>   0.1500 
 46 H        8.9940     2.3830    -1.7770 H     1 <1>   0.1500 
 47 H        7.9290     6.8370     3.4680 H     1 <1>   0.0800 
 48 H        9.3590     6.4800     2.5050 H     1 <1>   0.0800 
 49 H        8.4690     5.1690     3.2860 H     1 <1>   0.0800 
 50 H       12.5250     4.5160    -1.9800 H     1 <1>   0.0800 
 51 H       11.8840     4.6150    -0.3410 H     1 <1>   0.0800 
 52 H       11.6960     5.9740    -1.4570 H     1 <1>   0.0800 
 53 H        9.7610     8.4160    -0.5650 H     1 <1>   0.0800 
 54 H        8.1800     7.7470    -0.1700 H     1 <1>   0.0800 
 55 H        8.9730     7.3070    -1.6860 H     1 <1>   0.0800 
@<TRIPOS>BOND
  1   1   2  2   
  2   2   3  am  
  3   2   4  1   
  4   3   5  1   
  5   3   6  1   
  6   4   7  1   
  7   4  28  1   
  8   4  29  1   
  9   5   8  1   
 10   5   9  1   
 11   5  30  1   
 12   6   7  1   
 13   6  31  1   
 14   6  32  1   
 15   7  10  1   
 16   7  33  1   
 17   8  11  1   
 18   8  34  1   
 19   8  35  1   
 20   9  12  1   
 21   9  36  1   
 22   9  37  1   
 23  10  13  2   
 24  10  14  am  
 25  11  15  1   
 26  11  38  1   
 27  11  39  1   
 28  12  15  1   
 29  12  40  1   
 30  12  41  1   
 31  14  16  1   
 32  14  42  1   
 33  15  43  1   
 34  15  44  1   
 35  16  17  ar  
 36  16  18  ar  
 37  17  19  ar  
 38  17  45  1   
 39  18  20  ar  
 40  18  46  1   
 41  19  21  1   
 42  19  22  ar  
 43  20  22  ar  
 44  20  23  1   
 45  21  24  1   
 46  22  25  1   
 47  23  26  1   
 48  24  47  1   
 49  24  48  1   
 50  24  49  1   
 51  25  27  1   
 52  26  50  1   
 53  26  51  1   
 54  26  52  1   
 55  27  53  1   
 56  27  54  1   
 57  27  55  1   
@<TRIPOS>SUBSTRUCTURE
  1 ****  10 GROUP 4 **** **** 0

# MOE 2024.06 (io_trps.svl 2023.06)
