@<TRIPOS>MOLECULE
[4-(6-Allyloxy-pyridazin-3-yloxy)-6-pyrrolidin-1-yl-[1,3,5]triazin-2-yl]-dimethy
46 48 1 0 0 
SMALL
USER_CHARGES


@<TRIPOS>ATOM
  1 O        0.0130    -0.2870     0.0630 O.3   1 <1>  -0.1650 
  2 C       -0.5870    -1.4870     0.0070 C.ar  1 <1>   0.7020 
  3 C        1.3190    -0.1090    -0.2240 C.ar  1 <1>   0.3920 
  4 N        0.1560    -2.5610     0.0380 N.ar  1 <1>  -0.6200 
  5 N       -1.8840    -1.4450    -0.0840 N.ar  1 <1>  -0.6200 
  6 N        2.0220     0.5910     0.6680 N.ar  1 <1>  -0.3100 
  7 C        1.8650    -0.6040    -1.3960 C.ar  1 <1>  -0.1500 
  8 C       -0.5240    -3.6770    -0.0320 C.ar  1 <1>   0.7200 
  9 C       -2.4540    -2.6240    -0.1470 C.ar  1 <1>   0.7200 
 10 N        3.3010     0.8120     0.4600 N.ar  1 <1>  -0.3100 
 11 C        3.2020    -0.3700    -1.6130 C.ar  1 <1>  -0.1500 
 12 N       -1.8220    -3.7690    -0.1290 N.ar  1 <1>  -0.6200 
 13 N        0.1980    -4.8420    -0.0130 N.pl3 1 <1>  -0.8380 
 14 N       -3.8300    -2.6550    -0.2440 N.pl3 1 <1>  -0.8380 
 15 C        3.8830     0.3420    -0.6490 C.ar  1 <1>   0.3930 
 16 C        1.6360    -4.9190     0.3250 C.3   1 <1>   0.2090 
 17 C       -0.4220    -6.1840    -0.0370 C.3   1 <1>   0.2090 
 18 C       -4.6410    -1.4340    -0.5180 C.3   1 <1>   0.1290 
 19 C       -4.6120    -3.9090    -0.0540 C.3   1 <1>   0.1290 
 20 O        5.1990     0.5630    -0.8560 O.3   1 <1>  -0.3630 
 21 C        1.8570    -6.3690     0.7410 C.3   1 <1>  -0.1600 
 22 C        0.7540    -7.1500     0.0310 C.3   1 <1>  -0.1600 
 23 C        5.9630     1.2520     0.1090 C.3   1 <1>   0.2580 
 24 C        7.3960     1.3140    -0.3860 C.2   1 <1>  -0.2880 
 25 C        8.4610     0.8290     0.2600 C.2   1 <1>  -0.3000 
 26 H        1.2690    -1.1520    -2.1030 H     1 <1>   0.1500 
 27 H        3.7090    -0.7240    -2.4910 H     1 <1>   0.1500 
 28 H        1.8890    -4.2380     1.1210 H     1 <1>   0.0800 
 29 H        2.2150    -4.6820    -0.5520 H     1 <1>   0.0800 
 30 H       -1.0030    -6.3220    -0.9330 H     1 <1>   0.0800 
 31 H       -1.0560    -6.2950     0.8270 H     1 <1>   0.0800 
 32 H       -4.0750    -0.7210    -1.0930 H     1 <1>   0.0800 
 33 H       -4.9320    -0.9790     0.4130 H     1 <1>   0.0800 
 34 H       -5.5220    -1.6930    -1.0780 H     1 <1>   0.0800 
 35 H       -4.0850    -4.5930     0.5880 H     1 <1>   0.0800 
 36 H       -4.7750    -4.3800    -1.0080 H     1 <1>   0.0800 
 37 H       -5.5620    -3.6880     0.4000 H     1 <1>   0.0800 
 38 H        1.7300    -6.4450     1.8060 H     1 <1>   0.0800 
 39 H        2.8410    -6.7130     0.4780 H     1 <1>   0.0800 
 40 H        1.0630    -7.3890    -0.9720 H     1 <1>   0.0800 
 41 H        0.4950    -8.0580     0.5450 H     1 <1>   0.0800 
 42 H        5.9010     0.7190     1.0430 H     1 <1>   0.0800 
 43 H        5.5570     2.2430     0.2250 H     1 <1>   0.0800 
 44 H        7.4700     1.8010    -1.3430 H     1 <1>   0.1500 
 45 H        9.4680     0.8850    -0.1170 H     1 <1>   0.1500 
 46 H        8.4190     0.3340     1.2160 H     1 <1>   0.1500 
@<TRIPOS>BOND
  1   1   2  1   
  2   1   3  1   
  3   2   4  ar  
  4   2   5  ar  
  5   3   6  ar  
  6   3   7  ar  
  7   4   8  ar  
  8   5   9  ar  
  9   6  10  ar  
 10   7  11  ar  
 11   7  26  1   
 12   8  12  ar  
 13   8  13  1   
 14   9  12  ar  
 15   9  14  1   
 16  10  15  ar  
 17  11  15  ar  
 18  11  27  1   
 19  13  16  1   
 20  13  17  1   
 21  14  18  1   
 22  14  19  1   
 23  15  20  1   
 24  16  21  1   
 25  16  28  1   
 26  16  29  1   
 27  17  22  1   
 28  17  30  1   
 29  17  31  1   
 30  18  32  1   
 31  18  33  1   
 32  18  34  1   
 33  19  35  1   
 34  19  36  1   
 35  19  37  1   
 36  20  23  1   
 37  21  22  1   
 38  21  38  1   
 39  21  39  1   
 40  22  40  1   
 41  22  41  1   
 42  23  24  1   
 43  23  42  1   
 44  23  43  1   
 45  24  25  2   
 46  24  44  1   
 47  25  45  1   
 48  25  46  1   
@<TRIPOS>SUBSTRUCTURE
  1 ****   4 GROUP 4 **** **** 0

# MOE 2024.06 (io_trps.svl 2023.06)
