@<TRIPOS>MOLECULE
(4-tert-Butylamino-6-morpholin-4-yl-[1,3,5]triazin-2-yloxy)-acetonitrile
41 42 1 0 0 
SMALL
USER_CHARGES


@<TRIPOS>ATOM
  1 O       -0.8120    -0.0620     0.4060 O.3   1 <1>  -0.5600 
  2 C       -1.8150    -0.4020    -0.5110 C.3   1 <1>   0.1200 
  3 C       -0.6490     1.3210     0.5670 C.3   1 <1>   0.1200 
  4 C       -3.1850     0.1420    -0.0660 C.3   1 <1>   0.2090 
  5 C       -1.9420     1.9770     1.0840 C.3   1 <1>   0.2090 
  6 N       -3.1110     1.6060     0.2250 N.pl3 1 <1>  -0.8380 
  7 C       -4.1900     2.4400     0.0600 C.ar  1 <1>   0.7200 
  8 N       -3.9600     3.7270     0.1320 N.ar  1 <1>  -0.6200 
  9 N       -5.3570     1.8910    -0.1550 N.ar  1 <1>  -0.6200 
 10 C       -5.0330     4.4600     0.0140 C.ar  1 <1>   0.7030 
 11 C       -6.3370     2.7400    -0.2620 C.ar  1 <1>   0.7200 
 12 O       -4.9050     5.7940     0.0940 O.3   1 <1>  -0.3630 
 13 N       -6.2450     4.0410    -0.1840 N.ar  1 <1>  -0.6200 
 14 N       -7.5390     2.1630    -0.4830 N.pl3 1 <1>  -0.8690 
 15 C       -3.6410     6.4190     0.2280 C.3   1 <1>   0.3200 
 16 C       -8.8890     2.6630    -0.2260 C.3   1 <1>   0.3690 
 17 C       -3.0980     6.2810     1.6160 C.1   1 <1>   0.3570 
 18 C       -9.0010     3.1750     1.2110 C.3   1 <1>  -0.2400 
 19 C       -9.2450     3.7440    -1.2440 C.3   1 <1>  -0.2400 
 20 C       -9.8190     1.4670    -0.4100 C.3   1 <1>  -0.2400 
 21 N       -2.6490     6.1920     2.6580 N.1   1 <1>  -0.5570 
 22 H       -1.8480    -1.4740    -0.5790 H     1 <1>   0.0800 
 23 H       -1.5510    -0.0020    -1.4740 H     1 <1>   0.0800 
 24 H       -0.3670     1.7470    -0.3800 H     1 <1>   0.0800 
 25 H        0.1500     1.4780     1.2690 H     1 <1>   0.0800 
 26 H       -3.5060    -0.3800     0.8190 H     1 <1>   0.0800 
 27 H       -3.9020    -0.0490    -0.8460 H     1 <1>   0.0800 
 28 H       -1.8030     3.0430     1.1110 H     1 <1>   0.0800 
 29 H       -2.1260     1.6450     2.0900 H     1 <1>   0.0800 
 30 H       -7.4780     1.1490    -0.4800 H     1 <1>   0.4000 
 31 H       -3.7750     7.4610     0.0060 H     1 <1>   0.0800 
 32 H       -2.9610     5.9960    -0.4890 H     1 <1>   0.0800 
 33 H       -8.6850     2.4180     1.9050 H     1 <1>   0.0800 
 34 H       -8.3990     4.0530     1.3520 H     1 <1>   0.0800 
 35 H      -10.0190     3.4370     1.4300 H     1 <1>   0.0800 
 36 H       -9.1010     3.3770    -2.2440 H     1 <1>   0.0800 
 37 H       -8.6350     4.6170    -1.1030 H     1 <1>   0.0800 
 38 H      -10.2720     4.0370    -1.1300 H     1 <1>   0.0800 
 39 H       -9.7390     1.0800    -1.4110 H     1 <1>   0.0800 
 40 H      -10.8390     1.7640    -0.2470 H     1 <1>   0.0800 
 41 H       -9.5790     0.6880     0.2910 H     1 <1>   0.0800 
@<TRIPOS>BOND
  1   1   2  1   
  2   1   3  1   
  3   2   4  1   
  4   2  22  1   
  5   2  23  1   
  6   3   5  1   
  7   3  24  1   
  8   3  25  1   
  9   4   6  1   
 10   4  26  1   
 11   4  27  1   
 12   5   6  1   
 13   5  28  1   
 14   5  29  1   
 15   6   7  1   
 16   7   8  ar  
 17   7   9  ar  
 18   8  10  ar  
 19   9  11  ar  
 20  10  12  1   
 21  10  13  ar  
 22  11  13  ar  
 23  11  14  1   
 24  12  15  1   
 25  14  16  1   
 26  14  30  1   
 27  15  17  1   
 28  15  31  1   
 29  15  32  1   
 30  16  18  1   
 31  16  19  1   
 32  16  20  1   
 33  17  21  3   
 34  18  33  1   
 35  18  34  1   
 36  18  35  1   
 37  19  36  1   
 38  19  37  1   
 39  19  38  1   
 40  20  39  1   
 41  20  40  1   
 42  20  41  1   
@<TRIPOS>SUBSTRUCTURE
  1 ****   7 GROUP 4 **** **** 0

# MOE 2024.06 (io_trps.svl 2023.06)
