@<TRIPOS>MOLECULE
NONAME
47 49 1 0 0 
SMALL
USER_CHARGES


@<TRIPOS>ATOM
  1 O       -0.2430    -0.2820    -1.0280 O.2   1 <1>  -0.5700 
  2 C       -0.6670    -1.3360    -0.5960 C.2   1 <1>   0.7800 
  3 O        0.1720    -2.2970    -0.1840 O.3   1 <1>  -0.2330 
  4 N       -2.0120    -1.5950    -0.5140 N.am  1 <1>  -0.6600 
  5 C        1.5250    -2.1970    -0.0760 C.ar  1 <1>   0.0830 
  6 C       -2.5930    -2.8380     0.0740 C.3   1 <1>   0.1400 
  7 C       -3.0370    -0.6090    -0.9640 C.3   1 <1>   0.1400 
  8 C        2.3030    -3.2790    -0.4800 C.ar  1 <1>  -0.1440 
  9 C        2.1290    -1.0640     0.4560 C.ar  1 <1>  -0.1500 
 10 C       -3.6810    -2.4900     1.1040 C.3   1 <1>   0.1200 
 11 C       -4.0990    -0.3960     0.1270 C.3   1 <1>   0.1200 
 12 C        3.6810    -3.2060    -0.3520 C.ar  1 <1>  -0.1500 
 13 C        1.6590    -4.5300    -1.0590 C.3   1 <1>  -0.0960 
 14 C        3.5040    -1.0000     0.5800 C.ar  1 <1>  -0.1500 
 15 O       -4.6280    -1.6220     0.5490 O.3   1 <1>  -0.5600 
 16 C        4.2860    -2.0730     0.1700 C.ar  1 <1>   0.0830 
 17 O        5.6410    -2.0840     0.2850 O.3   1 <1>  -0.2330 
 18 C        6.4740    -1.0500     0.0990 C.2   1 <1>   0.7800 
 19 O        6.0640     0.0130    -0.3260 O.2   1 <1>  -0.5700 
 20 N        7.7990    -1.2440     0.3990 N.am  1 <1>  -0.6600 
 21 C        8.8170    -0.1680     0.2180 C.3   1 <1>   0.1400 
 22 C        8.3690    -2.5320     0.8920 C.3   1 <1>   0.1400 
 23 C       10.0340    -0.6990    -0.5580 C.3   1 <1>   0.1200 
 24 C        9.6120    -2.9210     0.0740 C.3   1 <1>   0.1200 
 25 O       10.5310    -1.8650     0.0380 O.3   1 <1>  -0.5600 
 26 H       -1.8330    -3.4300     0.5520 H     1 <1>   0.0800 
 27 H       -3.0290    -3.4280    -0.7130 H     1 <1>   0.0800 
 28 H       -3.5140    -0.9770    -1.8550 H     1 <1>   0.0800 
 29 H       -2.5780     0.3360    -1.2020 H     1 <1>   0.0800 
 30 H        1.5310    -0.2290     0.7750 H     1 <1>   0.1500 
 31 H       -3.2470    -2.0190     1.9690 H     1 <1>   0.0800 
 32 H       -4.1960    -3.3810     1.4160 H     1 <1>   0.0800 
 33 H       -4.9090     0.1990    -0.2550 H     1 <1>   0.0800 
 34 H       -3.6720     0.1080     0.9770 H     1 <1>   0.0800 
 35 H        4.3010    -4.0290    -0.6580 H     1 <1>   0.1500 
 36 H        1.0860    -4.2730    -1.9320 H     1 <1>   0.0800 
 37 H        1.0050    -4.9750    -0.3320 H     1 <1>   0.0800 
 38 H        2.4030    -5.2530    -1.3410 H     1 <1>   0.0800 
 39 H        3.9580    -0.1190     0.9950 H     1 <1>   0.1500 
 40 H        9.1380     0.1800     1.1840 H     1 <1>   0.0800 
 41 H        8.3960     0.6680    -0.3130 H     1 <1>   0.0800 
 42 H        7.6440    -3.3240     0.8280 H     1 <1>   0.0800 
 43 H        8.6490    -2.4210     1.9250 H     1 <1>   0.0800 
 44 H       10.8220     0.0320    -0.5570 H     1 <1>   0.0800 
 45 H        9.7660    -0.9180    -1.5770 H     1 <1>   0.0800 
 46 H        9.3390    -3.1750    -0.9350 H     1 <1>   0.0800 
 47 H       10.1020    -3.7660     0.5230 H     1 <1>   0.0800 
@<TRIPOS>BOND
  1   1   2  2   
  2   2   3  1   
  3   2   4  am  
  4   3   5  1   
  5   4   6  1   
  6   4   7  1   
  7   5   8  ar  
  8   5   9  ar  
  9   6  10  1   
 10   6  26  1   
 11   6  27  1   
 12   7  11  1   
 13   7  28  1   
 14   7  29  1   
 15   8  12  ar  
 16   8  13  1   
 17   9  14  ar  
 18   9  30  1   
 19  10  15  1   
 20  10  31  1   
 21  10  32  1   
 22  11  15  1   
 23  11  33  1   
 24  11  34  1   
 25  12  16  ar  
 26  12  35  1   
 27  13  36  1   
 28  13  37  1   
 29  13  38  1   
 30  14  16  ar  
 31  14  39  1   
 32  16  17  1   
 33  17  18  1   
 34  18  19  2   
 35  18  20  am  
 36  20  21  1   
 37  20  22  1   
 38  21  23  1   
 39  21  40  1   
 40  21  41  1   
 41  22  24  1   
 42  22  42  1   
 43  22  43  1   
 44  23  25  1   
 45  23  44  1   
 46  23  45  1   
 47  24  25  1   
 48  24  46  1   
 49  24  47  1   
@<TRIPOS>SUBSTRUCTURE
  1 ****   9 GROUP 4 **** **** 0

# MOE 2024.06 (io_trps.svl 2023.06)
