@<TRIPOS>MOLECULE
1-(2-Cyano-ethyl)-3-phenyl-1H-pyrazole-4-carboxylic acid isopropyl ester
38 39 1 0 0 
SMALL
USER_CHARGES


@<TRIPOS>ATOM
  1 O        0.8670     0.0890    -0.5190 O.2   1 <1>  -0.5700 
  2 C        1.3420    -0.9780    -0.1900 C.2   1 <1>   0.8060 
  3 O        2.6690    -1.0840    -0.0630 O.3   1 <1>  -0.4300 
  4 C        0.5750    -2.1670     0.0720 C.2   1 <1>  -0.0860 
  5 C        3.5470    -0.0020    -0.2690 C.3   1 <1>   0.2000 
  6 C       -0.8260    -2.3120     0.1310 C.2   1 <1>   0.2350 
  7 C        1.0390    -3.4270     0.3040 C.2   1 <1>  -0.3020 
  8 C        4.9050    -0.5900    -0.6440 C.3   1 <1>  -0.2400 
  9 C        3.6290     0.8100     1.0240 C.3   1 <1>  -0.2400 
 10 N       -1.1610    -3.5570     0.3550 N.2   1 <1>  -0.7070 
 11 C       -1.8220    -1.2730    -0.0200 C.ar  1 <1>   0.0540 
 12 N       -0.0140    -4.2320     0.4680 N.pl3 1 <1>   0.3140 
 13 C       -1.8220    -0.1270     0.7750 C.ar  1 <1>  -0.1500 
 14 C       -2.8390    -1.4020    -0.9640 C.ar  1 <1>  -0.1500 
 15 C        0.0070    -5.6810     0.7350 C.3   1 <1>   0.0960 
 16 C       -2.7860     0.8530     0.6250 C.ar  1 <1>  -0.1500 
 17 C       -3.8070    -0.4270    -1.1190 C.ar  1 <1>  -0.1500 
 18 C       -0.8850    -6.4230    -0.2640 C.3   1 <1>   0.0400 
 19 C       -3.7810     0.7050    -0.3240 C.ar  1 <1>  -0.1500 
 20 C       -0.7810    -7.8860    -0.0400 C.1   1 <1>   0.3570 
 21 N       -0.6710    -9.0010     0.1500 N.1   1 <1>  -0.5570 
 22 H        3.1780     0.6040    -1.0810 H     1 <1>   0.0800 
 23 H        2.0590    -3.7640     0.3520 H     1 <1>   0.1500 
 24 H        5.2760    -1.2180     0.1460 H     1 <1>   0.0800 
 25 H        5.6120     0.2020    -0.8140 H     1 <1>   0.0800 
 26 H        4.8190    -1.1650    -1.5480 H     1 <1>   0.0800 
 27 H        3.9620     0.1910     1.8380 H     1 <1>   0.0800 
 28 H        2.6680     1.2290     1.2600 H     1 <1>   0.0800 
 29 H        4.3250     1.6200     0.9010 H     1 <1>   0.0800 
 30 H       -1.0530    -0.0040     1.5160 H     1 <1>   0.1500 
 31 H       -2.8640    -2.2850    -1.5770 H     1 <1>   0.1500 
 32 H       -0.3450    -5.8430     1.7370 H     1 <1>   0.0800 
 33 H        1.0210    -6.0300     0.6610 H     1 <1>   0.0800 
 34 H       -2.7610     1.7310     1.2470 H     1 <1>   0.1500 
 35 H       -4.5810    -0.5480    -1.8570 H     1 <1>   0.1500 
 36 H       -0.5780    -6.2040    -1.2700 H     1 <1>   0.0800 
 37 H       -1.9120    -6.1280    -0.1370 H     1 <1>   0.0800 
 38 H       -4.5320     1.4670    -0.4430 H     1 <1>   0.1500 
@<TRIPOS>BOND
  1   1   2  2   
  2   2   3  1   
  3   2   4  1   
  4   3   5  1   
  5   4   6  1   
  6   4   7  2   
  7   5   8  1   
  8   5   9  1   
  9   5  22  1   
 10   6  10  2   
 11   6  11  1   
 12   7  12  1   
 13   7  23  1   
 14   8  24  1   
 15   8  25  1   
 16   8  26  1   
 17   9  27  1   
 18   9  28  1   
 19   9  29  1   
 20  10  12  1   
 21  11  13  ar  
 22  11  14  ar  
 23  12  15  1   
 24  13  16  ar  
 25  13  30  1   
 26  14  17  ar  
 27  14  31  1   
 28  15  18  1   
 29  15  32  1   
 30  15  33  1   
 31  16  19  ar  
 32  16  34  1   
 33  17  19  ar  
 34  17  35  1   
 35  18  20  1   
 36  18  36  1   
 37  18  37  1   
 38  19  38  1   
 39  20  21  3   
@<TRIPOS>SUBSTRUCTURE
  1 ****   6 GROUP 4 **** **** 0

# MOE 2024.06 (io_trps.svl 2023.06)
