@<TRIPOS>MOLECULE
Cyclohexanecarboxylic acid (3-p-tolyl-[1,2,4]oxadiazol-5-ylmethyl)-amide
43 45 1 0 0 
SMALL
USER_CHARGES


@<TRIPOS>ATOM
  1 O       -1.2570    -0.4760    -1.1860 O.2   1 <1>  -0.5700 
  2 C       -1.9620    -1.1020    -0.4370 C.2   1 <1>   0.5690 
  3 N       -1.4440    -2.2050     0.1560 N.am  1 <1>  -0.7300 
  4 C       -3.4050    -0.6430    -0.1940 C.3   1 <1>  -0.0190 
  5 C       -2.0960    -3.1770     1.0760 C.3   1 <1>   0.3200 
  6 C       -4.3060    -1.0060    -1.3910 C.3   1 <1>  -0.1600 
  7 C       -3.4960     0.8680     0.0970 C.3   1 <1>  -0.1600 
  8 C       -3.2620    -3.9090     0.4250 C.2   1 <1>   0.2980 
  9 C       -5.7600    -0.5870    -1.1420 C.3   1 <1>  -0.1600 
 10 C       -4.9490     1.3010     0.3460 C.3   1 <1>  -0.1600 
 11 O       -3.0260    -4.6740    -0.6070 O.3   1 <1>  -0.0190 
 12 N       -4.4770    -3.8420     0.7880 N.2   1 <1>  -0.5650 
 13 C       -5.8550     0.9130    -0.8300 C.3   1 <1>  -0.1600 
 14 N       -4.1950    -5.1250    -0.9380 N.2   1 <1>  -0.4100 
 15 C       -5.0580    -4.6310    -0.1220 C.2   1 <1>   0.4620 
 16 C       -6.4930    -4.8610    -0.1590 C.ar  1 <1>   0.0540 
 17 C       -7.3640    -4.2180     0.7240 C.ar  1 <1>  -0.1500 
 18 C       -7.0630    -5.7350    -1.0850 C.ar  1 <1>  -0.1500 
 19 C       -8.7290    -4.4350     0.6830 C.ar  1 <1>  -0.1500 
 20 C       -8.4280    -5.9550    -1.1310 C.ar  1 <1>  -0.1500 
 21 C       -9.2710    -5.3050    -0.2470 C.ar  1 <1>  -0.1440 
 22 C      -10.7690    -5.5460    -0.2940 C.3   1 <1>  -0.0970 
 23 H       -0.4900    -2.4310    -0.1320 H     1 <1>   0.3700 
 24 H       -3.7870    -1.1470     0.6730 H     1 <1>   0.0800 
 25 H       -2.4520    -2.6550     1.9460 H     1 <1>   0.0800 
 26 H       -1.3690    -3.9010     1.3970 H     1 <1>   0.0800 
 27 H       -4.2660    -2.0660    -1.5730 H     1 <1>   0.0800 
 28 H       -3.9370    -0.5120    -2.2740 H     1 <1>   0.0800 
 29 H       -3.1010     1.4170    -0.7420 H     1 <1>   0.0800 
 30 H       -2.8950     1.1070     0.9570 H     1 <1>   0.0800 
 31 H       -6.1580    -1.1520    -0.3160 H     1 <1>   0.0800 
 32 H       -6.3540    -0.8140    -2.0100 H     1 <1>   0.0800 
 33 H       -4.9860     2.3670     0.4920 H     1 <1>   0.0800 
 34 H       -5.3120     0.8330     1.2450 H     1 <1>   0.0800 
 35 H       -6.8750     1.1700    -0.6010 H     1 <1>   0.0800 
 36 H       -5.5630     1.4730    -1.7020 H     1 <1>   0.0800 
 37 H       -6.9670    -3.5360     1.4550 H     1 <1>   0.1500 
 38 H       -6.4280    -6.2510    -1.7840 H     1 <1>   0.1500 
 39 H       -9.3690    -3.9230     1.3800 H     1 <1>   0.1500 
 40 H       -8.8320    -6.6380    -1.8580 H     1 <1>   0.1500 
 41 H      -11.3020    -4.6760     0.0460 H     1 <1>   0.0800 
 42 H      -11.0230    -6.3780     0.3390 H     1 <1>   0.0800 
 43 H      -11.0830    -5.7650    -1.2980 H     1 <1>   0.0800 
@<TRIPOS>BOND
  1   1   2  2   
  2   2   3  am  
  3   2   4  1   
  4   3   5  1   
  5   3  23  1   
  6   4   6  1   
  7   4   7  1   
  8   4  24  1   
  9   5   8  1   
 10   5  25  1   
 11   5  26  1   
 12   6   9  1   
 13   6  27  1   
 14   6  28  1   
 15   7  10  1   
 16   7  29  1   
 17   7  30  1   
 18   8  11  1   
 19   8  12  2   
 20   9  13  1   
 21   9  31  1   
 22   9  32  1   
 23  10  13  1   
 24  10  33  1   
 25  10  34  1   
 26  11  14  1   
 27  12  15  1   
 28  13  35  1   
 29  13  36  1   
 30  14  15  2   
 31  15  16  1   
 32  16  17  ar  
 33  16  18  ar  
 34  17  19  ar  
 35  17  37  1   
 36  18  20  ar  
 37  18  38  1   
 38  19  21  ar  
 39  19  39  1   
 40  20  21  ar  
 41  20  40  1   
 42  21  22  1   
 43  22  41  1   
 44  22  42  1   
 45  22  43  1   
@<TRIPOS>SUBSTRUCTURE
  1 ****  12 GROUP 4 **** **** 0

# MOE 2024.06 (io_trps.svl 2023.06)
