@<TRIPOS>MOLECULE
3-Methyl-8-morpholin-4-ylmethyl-3,7-dihydro-purine-2,6-dione
34 36 1 0 0 
SMALL
USER_CHARGES


@<TRIPOS>ATOM
  1 O        0.5900     0.2330    -0.1850 O.2   1 <1>  -0.5700 
  2 C        1.6560     0.7520     0.0720 C.2   1 <1>   0.6900 
  3 N        2.8550     0.3030    -0.4720 N.am  1 <1>  -0.4240 
  4 N        1.6710     1.8130     0.9290 N.am  1 <1>  -0.4900 
  5 C        4.0390     0.9580    -0.1100 C.2   1 <1>  -0.0880 
  6 C        2.8950    -0.8450    -1.4160 C.3   1 <1>   0.0600 
  7 C        2.8030     2.4780     1.3070 C.2   1 <1>   0.7160 
  8 N        5.3080     0.7270    -0.4710 N.pl3 1 <1>   0.0330 
  9 C        4.0510     2.0160     0.7540 C.2   1 <1>   0.1410 
 10 O        2.6680     3.4070     2.0830 O.2   1 <1>  -0.5700 
 11 C        6.0440     1.6520     0.1930 C.2   1 <1>   0.0060 
 12 N        5.3390     2.4420     0.9320 N.2   1 <1>  -0.5650 
 13 C        7.5550     1.6870     0.0410 C.3   1 <1>   0.2900 
 14 N        8.0950     0.3150    -0.0570 N.3   1 <1>  -0.8100 
 15 C        9.5050     0.3380    -0.4930 C.3   1 <1>   0.1100 
 16 C        8.0080    -0.3750     1.2510 C.3   1 <1>   0.1100 
 17 C       10.1010    -1.0820    -0.5140 C.3   1 <1>   0.1200 
 18 C        8.6450    -1.7740     1.1830 C.3   1 <1>   0.1200 
 19 O        9.9680    -1.6870     0.7400 O.3   1 <1>  -0.5600 
 20 H        0.7890     2.1280     1.3120 H     1 <1>   0.3700 
 21 H        1.9040    -1.2130    -1.6150 H     1 <1>   0.0800 
 22 H        3.4780    -1.6410    -0.9890 H     1 <1>   0.0800 
 23 H        3.3380    -0.5320    -2.3450 H     1 <1>   0.0800 
 24 H        5.7020    -0.0090    -1.0640 H     1 <1>   0.2700 
 25 H        7.9930     2.2080     0.8760 H     1 <1>   0.0800 
 26 H        7.7890     2.2330    -0.8570 H     1 <1>   0.0800 
 27 H       10.0900     0.9490     0.1740 H     1 <1>   0.0800 
 28 H        9.5700     0.7590    -1.4810 H     1 <1>   0.0800 
 29 H        6.9780    -0.4740     1.5470 H     1 <1>   0.0800 
 30 H        8.5150     0.1990     2.0080 H     1 <1>   0.0800 
 31 H       11.1500    -1.0430    -0.7490 H     1 <1>   0.0800 
 32 H        9.6020    -1.6920    -1.2460 H     1 <1>   0.0800 
 33 H        8.0960    -2.4080     0.5090 H     1 <1>   0.0800 
 34 H        8.6540    -2.2270     2.1580 H     1 <1>   0.0800 
@<TRIPOS>BOND
  1   1   2  2   
  2   2   3  am  
  3   2   4  am  
  4   3   5  1   
  5   3   6  1   
  6   4   7  am  
  7   4  20  1   
  8   5   8  1   
  9   5   9  2   
 10   6  21  1   
 11   6  22  1   
 12   6  23  1   
 13   7   9  1   
 14   7  10  2   
 15   8  11  1   
 16   8  24  1   
 17   9  12  1   
 18  11  12  2   
 19  11  13  1   
 20  13  14  1   
 21  13  25  1   
 22  13  26  1   
 23  14  15  1   
 24  14  16  1   
 25  15  17  1   
 26  15  27  1   
 27  15  28  1   
 28  16  18  1   
 29  16  29  1   
 30  16  30  1   
 31  17  19  1   
 32  17  31  1   
 33  17  32  1   
 34  18  19  1   
 35  18  33  1   
 36  18  34  1   
@<TRIPOS>SUBSTRUCTURE
  1 ****   8 GROUP 4 **** **** 0

# MOE 2024.06 (io_trps.svl 2023.06)
