@<TRIPOS>MOLECULE
3,5-Dimethyl-N-(2-propyl-2H-tetrazol-5-yl)-benzamide
36 37 1 0 0 
SMALL
USER_CHARGES


@<TRIPOS>ATOM
  1 O        0.2520    -0.0370    -0.0940 O.2   1 <1>  -0.5700 
  2 C        0.1260     1.1700    -0.1550 C.2   1 <1>   0.5440 
  3 N       -1.0260     1.7160    -0.6450 N.am  1 <1>  -0.4930 
  4 C        1.2140     2.0460     0.2360 C.ar  1 <1>   0.0860 
  5 C       -2.2280     1.0910    -0.9420 C.2   1 <1>   0.5790 
  6 C        0.9810     3.3030     0.7970 C.ar  1 <1>  -0.1500 
  7 C        2.5420     1.6600     0.0560 C.ar  1 <1>  -0.1500 
  8 N       -2.9310     1.4510    -2.0120 N.2   1 <1>  -0.2270 
  9 N       -2.7800     0.1920    -0.2200 N.2   1 <1>  -0.7070 
 10 C        2.0220     4.1460     1.1460 C.ar  1 <1>  -0.1430 
 11 C        3.5940     2.4900     0.4010 C.ar  1 <1>  -0.1430 
 12 N       -3.9800     0.7270    -1.9970 N.2   1 <1>  -0.4180 
 13 N       -3.8730    -0.0340    -0.9180 N.pl3 1 <1>   0.5800 
 14 C        3.3280     3.7360     0.9410 C.ar  1 <1>  -0.1500 
 15 C        1.7500     5.5120     1.7520 C.3   1 <1>  -0.0970 
 16 C        5.0300     2.0460     0.1890 C.3   1 <1>  -0.0970 
 17 C       -4.8760    -1.0430    -0.5260 C.3   1 <1>   0.0960 
 18 C       -5.8990    -0.4600     0.4620 C.3   1 <1>  -0.1600 
 19 C       -6.9420    -1.5070     0.8670 C.3   1 <1>  -0.2400 
 20 H       -0.9670     2.6610    -1.0030 H     1 <1>   0.3700 
 21 H       -0.0310     3.6210     0.9730 H     1 <1>   0.1500 
 22 H        2.7400     0.6880    -0.3630 H     1 <1>   0.1500 
 23 H        4.1420     4.3870     1.2080 H     1 <1>   0.1500 
 24 H        0.7180     5.6090     2.0380 H     1 <1>   0.0800 
 25 H        1.9840     6.2810     1.0370 H     1 <1>   0.0800 
 26 H        2.3600     5.6540     2.6260 H     1 <1>   0.0800 
 27 H        5.0840     0.9800     0.0530 H     1 <1>   0.0800 
 28 H        5.6290     2.3080     1.0430 H     1 <1>   0.0800 
 29 H        5.4360     2.5270    -0.6820 H     1 <1>   0.0800 
 30 H       -4.3570    -1.8700    -0.0790 H     1 <1>   0.0800 
 31 H       -5.3710    -1.3870    -1.4150 H     1 <1>   0.0800 
 32 H       -6.3980     0.3790     0.0080 H     1 <1>   0.0800 
 33 H       -5.3840    -0.1150     1.3440 H     1 <1>   0.0800 
 34 H       -7.4850    -1.8540     0.0050 H     1 <1>   0.0800 
 35 H       -7.6450    -1.0760     1.5600 H     1 <1>   0.0800 
 36 H       -6.4690    -2.3480     1.3430 H     1 <1>   0.0800 
@<TRIPOS>BOND
  1   1   2  2   
  2   2   3  am  
  3   2   4  1   
  4   3   5  1   
  5   3  20  1   
  6   4   6  ar  
  7   4   7  ar  
  8   5   8  1   
  9   5   9  2   
 10   6  10  ar  
 11   6  21  1   
 12   7  11  ar  
 13   7  22  1   
 14   8  12  2   
 15   9  13  1   
 16  10  14  ar  
 17  10  15  1   
 18  11  14  ar  
 19  11  16  1   
 20  12  13  1   
 21  13  17  1   
 22  14  23  1   
 23  15  24  1   
 24  15  25  1   
 25  15  26  1   
 26  16  27  1   
 27  16  28  1   
 28  16  29  1   
 29  17  18  1   
 30  17  30  1   
 31  17  31  1   
 32  18  19  1   
 33  18  32  1   
 34  18  33  1   
 35  19  34  1   
 36  19  35  1   
 37  19  36  1   
@<TRIPOS>SUBSTRUCTURE
  1 ****   3 GROUP 4 **** **** 0

# MOE 2024.06 (io_trps.svl 2023.06)
