@<TRIPOS>MOLECULE
7-[2-(Benzooxazol-2-ylsulfanyl)-ethyl]-3-methyl-8-(4-methyl-piperidin-1-yl)-3,7-
56 60 1 0 0 
SMALL
USER_CHARGES


@<TRIPOS>ATOM
  1 S       -1.1110     0.8220     0.2250 S.3   1 <1>  -0.2920 
  2 C        0.6370     0.7320    -0.1240 C.2   1 <1>   0.5300 
  3 C       -1.7220    -0.8720    -0.1860 C.3   1 <1>   0.0630 
  4 O        1.3480     1.8270     0.0500 O.3   1 <1>  -0.2860 
  5 N        1.2500    -0.3220    -0.5130 N.2   1 <1>  -0.5690 
  6 C       -1.2820    -1.8350     0.9220 C.3   1 <1>   0.3490 
  7 C        2.5740     1.4600    -0.2650 C.ar  1 <1>   0.1330 
  8 C        2.5330     0.1290    -0.6200 C.ar  1 <1>   0.2210 
  9 N       -1.3770    -3.2520     0.4580 N.pl3 1 <1>  -0.7670 
 10 C        3.7510     2.1940    -0.2670 C.ar  1 <1>  -0.1570 
 11 C        3.7040    -0.5180    -0.9990 C.ar  1 <1>  -0.1570 
 12 C       -0.4220    -4.0520    -0.0420 C.cat 1 <1>   1.0690 
 13 C       -2.6080    -3.9090     0.2640 C.2   1 <1>   0.2710 
 14 C        4.9130     1.5460    -0.6430 C.ar  1 <1>  -0.1570 
 15 C        4.8880     0.1960    -1.0070 C.ar  1 <1>  -0.1570 
 16 N       -0.9870    -5.1440    -0.5590 N.pl3 1 <1>  -0.7030 
 17 N        0.9100    -3.8570    -0.0540 N.pl3 1 <1>  -0.5960 
 18 C       -3.9780    -3.6100     0.5600 C.2   1 <1>   0.7000 
 19 C       -2.3290    -5.0740    -0.3610 C.2   1 <1>   0.4210 
 20 C        1.6750    -3.3160     1.1060 C.3   1 <1>   0.1610 
 21 C        1.7740    -4.3060    -1.1820 C.3   1 <1>   0.1610 
 22 O       -4.3390    -2.5780     1.0890 O.2   1 <1>  -0.5740 
 23 N       -4.9130    -4.5400     0.2070 N.am  1 <1>  -0.4950 
 24 N       -3.2910    -6.0090    -0.7180 N.am  1 <1>  -0.4410 
 25 C        2.6710    -4.3660     1.6070 C.3   1 <1>  -0.1670 
 26 C        2.7530    -5.3780    -0.6990 C.3   1 <1>  -0.1670 
 27 C       -4.6150    -5.7180    -0.4160 C.2   1 <1>   0.6870 
 28 C       -2.9170    -7.2820    -1.4000 C.3   1 <1>   0.0530 
 29 C        3.5900    -4.8710     0.4840 C.3   1 <1>  -0.0870 
 30 O       -5.5200    -6.4700    -0.6880 O.2   1 <1>  -0.5740 
 31 C        4.5150    -5.9760     1.0020 C.3   1 <1>  -0.2460 
 32 H       -1.2910    -1.1290    -1.1370 H     1 <1>   0.0730 
 33 H       -2.7930    -0.8100    -0.2580 H     1 <1>   0.0730 
 34 H       -1.9040    -1.6920     1.7900 H     1 <1>   0.0730 
 35 H       -0.2740    -1.6010     1.2020 H     1 <1>   0.0730 
 36 H        3.7430     3.2310     0.0170 H     1 <1>   0.1430 
 37 H        3.6760    -1.5530    -1.2810 H     1 <1>   0.1430 
 38 H        5.8480     2.0810    -0.6580 H     1 <1>   0.1430 
 39 H        5.8060    -0.2850    -1.2980 H     1 <1>   0.1430 
 40 H       -0.4590    -5.9160    -0.9540 H     1 <1>   0.4450 
 41 H        1.0170    -3.0650     1.9180 H     1 <1>   0.0730 
 42 H        2.2060    -2.4290     0.8050 H     1 <1>   0.0730 
 43 H        2.3260    -3.4590    -1.5530 H     1 <1>   0.0730 
 44 H        1.1820    -4.6880    -1.9960 H     1 <1>   0.0730 
 45 H       -5.8930    -4.3540     0.4110 H     1 <1>   0.3650 
 46 H        2.1290    -5.1910     2.0360 H     1 <1>   0.0730 
 47 H        3.2700    -3.9320     2.3890 H     1 <1>   0.0730 
 48 H        3.4090    -5.6450    -1.5090 H     1 <1>   0.0730 
 49 H        2.2110    -6.2620    -0.4140 H     1 <1>   0.0730 
 50 H       -2.2170    -7.8310    -0.7940 H     1 <1>   0.0730 
 51 H       -2.4740    -7.0690    -2.3570 H     1 <1>   0.0730 
 52 H       -3.7830    -7.9030    -1.5590 H     1 <1>   0.0730 
 53 H        4.2030    -4.0500     0.1480 H     1 <1>   0.0730 
 54 H        3.9480    -6.8200     1.3540 H     1 <1>   0.0730 
 55 H        5.1180    -5.6080     1.8140 H     1 <1>   0.0730 
 56 H        5.1740    -6.3090     0.2200 H     1 <1>   0.0730 
@<TRIPOS>BOND
  1   1   2  1   
  2   1   3  1   
  3   2   4  1   
  4   2   5  2   
  5   3   6  1   
  6   3  32  1   
  7   3  33  1   
  8   4   7  1   
  9   5   8  1   
 10   6   9  1   
 11   6  34  1   
 12   6  35  1   
 13   7   8  ar  
 14   7  10  ar  
 15   8  11  ar  
 16   9  12  ar  
 17   9  13  1   
 18  10  14  ar  
 19  10  36  1   
 20  11  15  ar  
 21  11  37  1   
 22  12  16  ar  
 23  12  17  ar  
 24  13  18  1   
 25  13  19  2   
 26  14  15  ar  
 27  14  38  1   
 28  15  39  1   
 29  16  19  1   
 30  16  40  1   
 31  17  20  1   
 32  17  21  1   
 33  18  22  2   
 34  18  23  am  
 35  19  24  1   
 36  20  25  1   
 37  20  41  1   
 38  20  42  1   
 39  21  26  1   
 40  21  43  1   
 41  21  44  1   
 42  23  27  am  
 43  23  45  1   
 44  24  27  am  
 45  24  28  1   
 46  25  29  1   
 47  25  46  1   
 48  25  47  1   
 49  26  29  1   
 50  26  48  1   
 51  26  49  1   
 52  27  30  2   
 53  28  50  1   
 54  28  51  1   
 55  28  52  1   
 56  29  31  1   
 57  29  53  1   
 58  31  54  1   
 59  31  55  1   
 60  31  56  1   
@<TRIPOS>SUBSTRUCTURE
  1 ****  17 GROUP 4 **** **** 0

# MOE 2024.06 (io_trps.svl 2023.06)
