@<TRIPOS>MOLECULE
3-Ethoxy-N-(4-methyl-pyridin-2-yl)-propionamide
31 31 1 0 0 
SMALL
USER_CHARGES


@<TRIPOS>ATOM
  1 O        2.2070    -2.1240     1.2800 O.2   1 <1>  -0.5700 
  2 C        1.7580    -2.0190     0.1670 C.2   1 <1>   0.5690 
  3 N        2.2220    -1.1350    -0.7600 N.am  1 <1>  -0.5470 
  4 C        0.6020    -2.9100    -0.2270 C.3   1 <1>  -0.0990 
  5 C        3.2270    -0.1930    -0.7470 C.ar  1 <1>   0.4270 
  6 C       -0.6110    -2.6170     0.6490 C.3   1 <1>   0.1200 
  7 N        3.2910     0.4860    -1.8820 N.ar  1 <1>  -0.6200 
  8 C        4.0870     0.0290     0.3280 C.ar  1 <1>  -0.1500 
  9 O       -1.6710    -3.3790     0.1730 O.3   1 <1>  -0.5600 
 10 C        4.2330     1.4120    -1.9490 C.ar  1 <1>   0.1600 
 11 C        5.0650     0.9960     0.2470 C.ar  1 <1>  -0.1430 
 12 C       -2.8360    -3.2460     0.9150 C.3   1 <1>   0.1200 
 13 C        5.1290     1.7030    -0.9360 C.ar  1 <1>  -0.1500 
 14 C        6.0250     1.2760     1.3880 C.3   1 <1>  -0.0970 
 15 C       -3.8960    -4.1290     0.2680 C.3   1 <1>  -0.2400 
 16 H        1.7510    -1.1300    -1.6600 H     1 <1>   0.3700 
 17 H        0.8980    -3.9340    -0.0930 H     1 <1>   0.0800 
 18 H        0.3460    -2.7530    -1.2580 H     1 <1>   0.0800 
 19 H       -0.8800    -1.5760     0.5910 H     1 <1>   0.0800 
 20 H       -0.4110    -2.8890     1.6720 H     1 <1>   0.0800 
 21 H        3.9910    -0.5530     1.2220 H     1 <1>   0.1500 
 22 H        4.2970     1.9730    -2.8660 H     1 <1>   0.1500 
 23 H       -3.1420    -2.2140     0.9040 H     1 <1>   0.0800 
 24 H       -2.6430    -3.5640     1.9270 H     1 <1>   0.0800 
 25 H        5.8660     2.4730    -1.0740 H     1 <1>   0.1500 
 26 H        5.8010     0.6540     2.2370 H     1 <1>   0.0800 
 27 H        5.9480     2.3060     1.6890 H     1 <1>   0.0800 
 28 H        7.0350     1.0790     1.0760 H     1 <1>   0.0800 
 29 H       -4.0690    -3.8130    -0.7450 H     1 <1>   0.0800 
 30 H       -4.8180    -4.0540     0.8150 H     1 <1>   0.0800 
 31 H       -3.5740    -5.1550     0.2730 H     1 <1>   0.0800 
@<TRIPOS>BOND
  1   1   2  2   
  2   2   3  am  
  3   2   4  1   
  4   3   5  1   
  5   3  16  1   
  6   4   6  1   
  7   4  17  1   
  8   4  18  1   
  9   5   7  ar  
 10   5   8  ar  
 11   6   9  1   
 12   6  19  1   
 13   6  20  1   
 14   7  10  ar  
 15   8  11  ar  
 16   8  21  1   
 17   9  12  1   
 18  10  13  ar  
 19  10  22  1   
 20  11  13  ar  
 21  11  14  1   
 22  12  15  1   
 23  12  23  1   
 24  12  24  1   
 25  13  25  1   
 26  14  26  1   
 27  14  27  1   
 28  14  28  1   
 29  15  29  1   
 30  15  30  1   
 31  15  31  1   
@<TRIPOS>SUBSTRUCTURE
  1 ****   3 GROUP 4 **** **** 0

# MOE 2024.06 (io_trps.svl 2023.06)
