@<TRIPOS>MOLECULE
7-(2-Hydroxy-3-m-tolyloxy-propyl)-1,3-dimethyl-8-propylamino-3,7-dihydro-purine-
57 59 1 0 0 
SMALL
USER_CHARGES


@<TRIPOS>ATOM
  1 O        0.7900    -0.1180     0.0020 O.2   1 <1>  -0.5740 
  2 C        1.7330     0.6420    -0.0750 C.2   1 <1>   0.6870 
  3 N        1.6000     1.8530    -0.7460 N.am  1 <1>  -0.4250 
  4 N        2.9480     0.2970     0.5010 N.am  1 <1>  -0.4410 
  5 C        2.6840     2.7050    -0.9140 C.2   1 <1>   0.7000 
  6 C        0.2700     2.2130    -1.3310 C.3   1 <1>   0.0530 
  7 C        4.0160     1.1580     0.3290 C.2   1 <1>   0.4210 
  8 C        3.0990    -0.9850     1.2520 C.3   1 <1>   0.0530 
  9 O        2.5660     3.7490    -1.5330 O.2   1 <1>  -0.5740 
 10 C        3.9440     2.3240    -0.3440 C.2   1 <1>   0.2710 
 11 N        5.2860     1.0010     0.7780 N.pl3 1 <1>  -0.7030 
 12 N        5.2340     2.9020    -0.3020 N.pl3 1 <1>  -0.7670 
 13 C        6.0040     2.0500     0.3910 C.cat 1 <1>   1.0690 
 14 C        5.4340     4.2880    -0.8670 C.3   1 <1>   0.3490 
 15 N        7.2990     2.1660     0.6730 N.pl3 1 <1>  -0.7170 
 16 C        6.8780     4.8170    -0.8850 C.3   1 <1>   0.1940 
 17 C        8.1380     1.2750     1.5020 C.3   1 <1>   0.1610 
 18 O        6.8550     6.1570    -1.2330 O.3   1 <1>  -0.6830 
 19 C        7.7760     4.0590    -1.8820 C.3   1 <1>   0.1130 
 20 C        8.8850     0.3040     0.5890 C.3   1 <1>  -0.1660 
 21 O        8.9200     3.5800    -1.1990 O.3   1 <1>  -0.3680 
 22 C        9.7810    -0.6350     1.4010 C.3   1 <1>  -0.2460 
 23 C        9.8610     4.4340    -0.7210 C.ar  1 <1>   0.0760 
 24 C       10.0620     5.7150    -1.2280 C.ar  1 <1>  -0.1560 
 25 C       10.6360     3.9890     0.3380 C.ar  1 <1>  -0.1560 
 26 C       10.9980     6.5570    -0.6500 C.ar  1 <1>  -0.1500 
 27 C       11.5740     4.8260     0.9130 C.ar  1 <1>  -0.1560 
 28 C       11.7490     6.1080     0.4240 C.ar  1 <1>  -0.1560 
 29 C       11.2180     7.9580    -1.1910 C.3   1 <1>  -0.1030 
 30 H       -0.5240     1.8840    -0.6820 H     1 <1>   0.0730 
 31 H        0.1560     1.7360    -2.2890 H     1 <1>   0.0730 
 32 H        0.1780     3.2790    -1.4570 H     1 <1>   0.0730 
 33 H        2.1420    -1.3340     1.6030 H     1 <1>   0.0730 
 34 H        3.7360    -0.8480     2.1070 H     1 <1>   0.0730 
 35 H        3.5200    -1.7360     0.6060 H     1 <1>   0.0730 
 36 H        5.6620     0.2120     1.2930 H     1 <1>   0.4450 
 37 H        4.8360     4.9730    -0.2900 H     1 <1>   0.0730 
 38 H        5.0620     4.3070    -1.8780 H     1 <1>   0.0730 
 39 H        7.8560     2.8620     0.1600 H     1 <1>   0.4450 
 40 H        7.2770     4.7780     0.1130 H     1 <1>   0.0730 
 41 H        7.5340     0.7300     2.2090 H     1 <1>   0.0730 
 42 H        8.8440     1.8700     2.0600 H     1 <1>   0.0730 
 43 H        7.7240     6.5780    -1.0520 H     1 <1>   0.3950 
 44 H        8.0770     4.6640    -2.7180 H     1 <1>   0.0730 
 45 H        7.2680     3.1930    -2.2690 H     1 <1>   0.0730 
 46 H        9.5000     0.8540    -0.1040 H     1 <1>   0.0730 
 47 H        8.1850    -0.2880     0.0250 H     1 <1>   0.0730 
 48 H       10.5140    -0.0750     1.9560 H     1 <1>   0.0730 
 49 H       10.3030    -1.3070     0.7400 H     1 <1>   0.0730 
 50 H        9.1990    -1.2230     2.0890 H     1 <1>   0.0730 
 51 H        9.5140     6.0710    -2.0790 H     1 <1>   0.1440 
 52 H       10.5150     2.9920     0.7140 H     1 <1>   0.1440 
 53 H       12.1740     4.4820     1.7380 H     1 <1>   0.1440 
 54 H       12.4810     6.7540     0.8770 H     1 <1>   0.1440 
 55 H       10.3780     8.2810    -1.7790 H     1 <1>   0.0730 
 56 H       12.0990     7.9750    -1.8080 H     1 <1>   0.0730 
 57 H       11.3510     8.6530    -0.3810 H     1 <1>   0.0730 
@<TRIPOS>BOND
  1   1   2  2   
  2   2   3  am  
  3   2   4  am  
  4   3   5  am  
  5   3   6  1   
  6   4   7  1   
  7   4   8  1   
  8   5   9  2   
  9   5  10  1   
 10   6  30  1   
 11   6  31  1   
 12   6  32  1   
 13   7  10  2   
 14   7  11  1   
 15   8  33  1   
 16   8  34  1   
 17   8  35  1   
 18  10  12  1   
 19  11  13  ar  
 20  11  36  1   
 21  12  13  ar  
 22  12  14  1   
 23  13  15  ar  
 24  14  16  1   
 25  14  37  1   
 26  14  38  1   
 27  15  17  1   
 28  15  39  1   
 29  16  18  1   
 30  16  19  1   
 31  16  40  1   
 32  17  20  1   
 33  17  41  1   
 34  17  42  1   
 35  18  43  1   
 36  19  21  1   
 37  19  44  1   
 38  19  45  1   
 39  20  22  1   
 40  20  46  1   
 41  20  47  1   
 42  21  23  1   
 43  22  48  1   
 44  22  49  1   
 45  22  50  1   
 46  23  24  ar  
 47  23  25  ar  
 48  24  26  ar  
 49  24  51  1   
 50  25  27  ar  
 51  25  52  1   
 52  26  28  ar  
 53  26  29  1   
 54  27  28  ar  
 55  27  53  1   
 56  28  54  1   
 57  29  55  1   
 58  29  56  1   
 59  29  57  1   
@<TRIPOS>SUBSTRUCTURE
  1 ****  13 GROUP 4 **** **** 0

# MOE 2024.06 (io_trps.svl 2023.06)
