@<TRIPOS>MOLECULE
8-[2-(2-Hydroxy-ethoxy)-ethyl]-1,3,7-trimethyl-1H,8H-imidazo[2,1-f]purine-2,4-di
43 45 1 0 0 
SMALL
USER_CHARGES


@<TRIPOS>ATOM
  1 O        2.3270    -1.0600     1.3170 O.2   1 <1>  -0.5750 
  2 C        2.9840    -0.0980     0.9720 C.2   1 <1>   0.6850 
  3 N        2.4830     1.1890     1.1540 N.am  1 <1>  -0.4270 
  4 N        4.2340    -0.2850     0.3980 N.am  1 <1>  -0.4430 
  5 C        3.2340     2.3050     0.8100 C.2   1 <1>   0.6990 
  6 C        1.1290     1.3600     1.7640 C.3   1 <1>   0.0510 
  7 C        4.9790     0.8300     0.0620 C.2   1 <1>   0.4190 
  8 C        4.7360    -1.6660     0.1440 C.3   1 <1>   0.0510 
  9 O        2.8060     3.4340     0.9930 O.2   1 <1>  -0.5750 
 10 C        4.5240     2.0920     0.2420 C.2   1 <1>   0.2690 
 11 N        6.2300     0.8830    -0.4770 N.pl3 1 <1>  -0.7040 
 12 N        5.5400     2.9460    -0.2090 N.pl3 1 <1>  -0.6340 
 13 C        6.5350     2.1740    -0.6320 C.cat 1 <1>   1.0680 
 14 C        5.9290     4.2550    -0.3930 C.2   1 <1>   0.2210 
 15 N        7.5560     2.9130    -1.1030 N.pl3 1 <1>  -0.5730 
 16 C        7.1640     4.2360    -0.9430 C.2   1 <1>   0.1560 
 17 C        8.7810     2.4230    -1.8090 C.3   1 <1>   0.1590 
 18 C        8.0360     5.4110    -1.3470 C.3   1 <1>  -0.1110 
 19 C        9.6570     1.5120    -0.9390 C.3   1 <1>   0.1110 
 20 O        8.9170     0.3940    -0.5690 O.3   1 <1>  -0.5660 
 21 C        9.6230    -0.5440     0.1850 C.3   1 <1>   0.1110 
 22 C        8.6540    -1.6420     0.6400 C.3   1 <1>   0.1110 
 23 O        7.5710    -1.0750     1.3050 O.3   1 <1>  -0.6850 
 24 H        0.7060     2.3160     1.5060 H     1 <1>   0.0710 
 25 H        1.2050     1.2870     2.8350 H     1 <1>   0.0710 
 26 H        0.4620     0.5920     1.4100 H     1 <1>   0.0710 
 27 H        5.5490    -1.6580    -0.5590 H     1 <1>   0.0710 
 28 H        3.9440    -2.2760    -0.2560 H     1 <1>   0.0710 
 29 H        5.0730    -2.1010     1.0680 H     1 <1>   0.0710 
 30 H        6.9830     0.1780    -0.3890 H     1 <1>   0.4440 
 31 H        5.2990     5.0900    -0.1230 H     1 <1>   0.1410 
 32 H        9.3760     3.2600    -2.1260 H     1 <1>   0.0710 
 33 H        8.4880     1.8830    -2.6930 H     1 <1>   0.0710 
 34 H        8.9720     5.3770    -0.8190 H     1 <1>   0.0710 
 35 H        7.5450     6.3390    -1.1120 H     1 <1>   0.0710 
 36 H        8.2270     5.3860    -2.4050 H     1 <1>   0.0710 
 37 H        9.9820     2.0310    -0.0530 H     1 <1>   0.0710 
 38 H       10.5160     1.1840    -1.4990 H     1 <1>   0.0710 
 39 H       10.0620    -0.0570     1.0390 H     1 <1>   0.0710 
 40 H       10.4020    -0.9650    -0.4280 H     1 <1>   0.0710 
 41 H        9.1410    -2.3340     1.3050 H     1 <1>   0.0710 
 42 H        8.2820    -2.1830    -0.2130 H     1 <1>   0.0710 
 43 H        7.8320    -0.8330     2.2180 H     1 <1>   0.3930 
@<TRIPOS>BOND
  1   1   2  2   
  2   2   3  am  
  3   2   4  am  
  4   3   5  am  
  5   3   6  1   
  6   4   7  1   
  7   4   8  1   
  8   5   9  2   
  9   5  10  1   
 10   6  24  1   
 11   6  25  1   
 12   6  26  1   
 13   7  10  2   
 14   7  11  1   
 15   8  27  1   
 16   8  28  1   
 17   8  29  1   
 18  10  12  1   
 19  11  13  ar  
 20  11  30  1   
 21  12  13  ar  
 22  12  14  1   
 23  13  15  ar  
 24  14  16  2   
 25  14  31  1   
 26  15  16  1   
 27  15  17  1   
 28  16  18  1   
 29  17  19  1   
 30  17  32  1   
 31  17  33  1   
 32  18  34  1   
 33  18  35  1   
 34  18  36  1   
 35  19  20  1   
 36  19  37  1   
 37  19  38  1   
 38  20  21  1   
 39  21  22  1   
 40  21  39  1   
 41  21  40  1   
 42  22  23  1   
 43  22  41  1   
 44  22  42  1   
 45  23  43  1   
@<TRIPOS>SUBSTRUCTURE
  1 ****  11 GROUP 4 **** **** 0

# MOE 2024.06 (io_trps.svl 2023.06)
