@<TRIPOS>MOLECULE
N-[5-(2-Ethoxy-ethyl)-[1,3,4]thiadiazol-2-yl]-4-methyl-benzenesulfonamide
38 39 1 0 0 
SMALL
USER_CHARGES


@<TRIPOS>ATOM
  1 S       -0.3810     0.4190     1.1690 S.o2  1 <1>   1.4970 
  2 O        0.3710    -0.8190     1.1190 O.2   1 <1>  -0.6500 
  3 O       -0.4740     1.1030     2.4410 O.2   1 <1>  -0.6500 
  4 N        0.3450     1.4800     0.1050 N.2   1 <1>  -0.6380 
  5 C       -2.0370     0.1800     0.4660 C.ar  1 <1>  -0.0090 
  6 C        1.5770     1.6710     0.2800 C.2   1 <1>   0.6410 
  7 C       -2.2930    -0.8430    -0.4400 C.ar  1 <1>  -0.1500 
  8 C       -3.0880     1.0280     0.7960 C.ar  1 <1>  -0.1500 
  9 S        2.4510     2.8230    -0.7140 S.3   1 <1>  -0.2820 
 10 N        2.5100     1.1460     1.1480 N.pl3 1 <1>  -0.4080 
 11 C       -3.5510    -1.0180    -0.9920 C.ar  1 <1>  -0.1500 
 12 C       -4.3480     0.8590     0.2480 C.ar  1 <1>  -0.1500 
 13 C        3.9520     2.4720     0.1590 C.2   1 <1>   0.5300 
 14 N        3.8210     1.5980     1.0700 N.2   1 <1>  -0.4920 
 15 C       -4.5860    -0.1660    -0.6500 C.ar  1 <1>  -0.1430 
 16 C        5.1840     3.2330    -0.2680 C.3   1 <1>  -0.0990 
 17 C       -5.9680    -0.3560    -1.2510 C.3   1 <1>  -0.0970 
 18 C        5.0760     4.6980     0.1400 C.3   1 <1>   0.1200 
 19 O        6.2370     5.3360    -0.2750 O.3   1 <1>  -0.5600 
 20 C        6.2800     6.6880     0.0340 C.3   1 <1>   0.1200 
 21 C        7.6060     7.2330    -0.4810 C.3   1 <1>  -0.2400 
 22 H       -1.4990    -1.5150    -0.7190 H     1 <1>   0.1500 
 23 H       -2.9200     1.8320     1.4930 H     1 <1>   0.1500 
 24 H        2.2540     0.3700     1.7760 H     1 <1>   0.4000 
 25 H       -3.7190    -1.8210    -1.6880 H     1 <1>   0.1500 
 26 H       -5.1430     1.5300     0.5260 H     1 <1>   0.1500 
 27 H        5.2930     3.1570    -1.3340 H     1 <1>   0.0800 
 28 H        6.0440     2.7950     0.2040 H     1 <1>   0.0800 
 29 H       -5.8950    -0.7810    -2.2360 H     1 <1>   0.0800 
 30 H       -6.4780     0.5870    -1.3270 H     1 <1>   0.0800 
 31 H       -6.5470    -1.0150    -0.6300 H     1 <1>   0.0800 
 32 H        4.9940     4.7890     1.2110 H     1 <1>   0.0800 
 33 H        4.2340     5.1700    -0.3370 H     1 <1>   0.0800 
 34 H        6.2120     6.8050     1.1030 H     1 <1>   0.0800 
 35 H        5.4540     7.1840    -0.4470 H     1 <1>   0.0800 
 36 H        8.4240     6.7230    -0.0040 H     1 <1>   0.0800 
 37 H        7.6800     8.2820    -0.2610 H     1 <1>   0.0800 
 38 H        7.6710     7.0990    -1.5450 H     1 <1>   0.0800 
@<TRIPOS>BOND
  1   1   2  2   
  2   1   3  2   
  3   1   4  1   
  4   1   5  1   
  5   4   6  2   
  6   5   7  ar  
  7   5   8  ar  
  8   6   9  1   
  9   6  10  1   
 10   7  11  ar  
 11   7  22  1   
 12   8  12  ar  
 13   8  23  1   
 14   9  13  1   
 15  10  14  1   
 16  10  24  1   
 17  11  15  ar  
 18  11  25  1   
 19  12  15  ar  
 20  12  26  1   
 21  13  14  2   
 22  13  16  1   
 23  15  17  1   
 24  16  18  1   
 25  16  27  1   
 26  16  28  1   
 27  17  29  1   
 28  17  30  1   
 29  17  31  1   
 30  18  19  1   
 31  18  32  1   
 32  18  33  1   
 33  19  20  1   
 34  20  21  1   
 35  20  34  1   
 36  20  35  1   
 37  21  36  1   
 38  21  37  1   
 39  21  38  1   
@<TRIPOS>SUBSTRUCTURE
  1 ****   4 GROUP 4 **** **** 0

# MOE 2024.06 (io_trps.svl 2023.06)
