@<TRIPOS>MOLECULE
3,4,5-Trimethyl-pyrazole-1-sulfonic acid dimethylamide
29 29 1 0 0 
SMALL
USER_CHARGES


@<TRIPOS>ATOM
  1 S       -0.1740     0.2810     1.0320 S.o2  1 <1>   1.4240 
  2 O       -0.4380     1.6090     1.5570 O.2   1 <1>  -0.6500 
  3 O       -0.6000    -0.8430     1.8470 O.2   1 <1>  -0.6500 
  4 N        1.5600     0.1320     0.5250 N.pl3 1 <1>   0.5840 
  5 N       -1.0850     0.1650    -0.4110 N.am  1 <1>  -0.8490 
  6 N        2.2360    -1.0620     0.4120 N.2   1 <1>  -0.7070 
  7 C        2.3820     1.1370     0.0780 C.2   1 <1>  -0.3320 
  8 C       -1.0000    -1.1710    -1.0140 C.3   1 <1>   0.1160 
  9 C       -2.4890     0.5200    -0.1900 C.3   1 <1>   0.1160 
 10 C        3.4050    -0.7750    -0.0520 C.2   1 <1>   0.1080 
 11 C        3.5620     0.5850    -0.2830 C.2   1 <1>  -0.1810 
 12 C        1.9620     2.6020     0.0160 C.3   1 <1>  -0.0600 
 13 C        4.4530    -1.8360    -0.3030 C.3   1 <1>  -0.0590 
 14 C        4.8190     1.2410    -0.8310 C.3   1 <1>  -0.0590 
 15 H        0.0270    -1.4220    -1.2250 H     1 <1>   0.0800 
 16 H       -1.5460    -1.1930    -1.9410 H     1 <1>   0.0800 
 17 H       -1.4070    -1.9160    -0.3490 H     1 <1>   0.0800 
 18 H       -2.5600     1.5310     0.1760 H     1 <1>   0.0800 
 19 H       -2.9350    -0.1420     0.5340 H     1 <1>   0.0800 
 20 H       -3.0390     0.4580    -1.1140 H     1 <1>   0.0800 
 21 H        1.0530     2.7070    -0.5500 H     1 <1>   0.0800 
 22 H        2.7150     3.2060    -0.4540 H     1 <1>   0.0800 
 23 H        1.7960     2.9840     1.0080 H     1 <1>   0.0800 
 24 H        4.0320    -2.8120    -0.1420 H     1 <1>   0.0800 
 25 H        5.2780    -1.6980     0.3710 H     1 <1>   0.0800 
 26 H        4.8040    -1.7720    -1.3160 H     1 <1>   0.0800 
 27 H        4.7450     2.3110    -0.8010 H     1 <1>   0.0800 
 28 H        4.9750     0.9350    -1.8490 H     1 <1>   0.0800 
 29 H        5.6700     0.9460    -0.2440 H     1 <1>   0.0800 
@<TRIPOS>BOND
  1   1   2  2   
  2   1   3  2   
  3   1   4  1   
  4   1   5  am  
  5   4   6  1   
  6   4   7  1   
  7   5   8  1   
  8   5   9  1   
  9   6  10  2   
 10   7  11  2   
 11   7  12  1   
 12   8  15  1   
 13   8  16  1   
 14   8  17  1   
 15   9  18  1   
 16   9  19  1   
 17   9  20  1   
 18  10  11  1   
 19  10  13  1   
 20  11  14  1   
 21  12  21  1   
 22  12  22  1   
 23  12  23  1   
 24  13  24  1   
 25  13  25  1   
 26  13  26  1   
 27  14  27  1   
 28  14  28  1   
 29  14  29  1   
@<TRIPOS>SUBSTRUCTURE
  1 ****   4 GROUP 4 **** **** 0

# MOE 2024.06 (io_trps.svl 2023.06)
