@<TRIPOS>MOLECULE
N-(4-Methyl-benzyl)-2-[4-(morpholine-4-sulfonyl)-phenoxy]-acetamide
52 54 1 0 0 
SMALL
USER_CHARGES


@<TRIPOS>ATOM
  1 S        0.3280     0.7950    -0.3910 S.o2  1 <1>   1.4470 
  2 O       -0.5440     0.8020     0.7640 O.2   1 <1>  -0.6500 
  3 O       -0.0190     1.5850    -1.5510 O.2   1 <1>  -0.6500 
  4 N        0.4510    -0.8140    -0.9080 N.am  1 <1>  -0.8490 
  5 C        2.0240     1.1930     0.1120 C.ar  1 <1>  -0.0090 
  6 C       -0.7220    -1.2110    -1.7020 C.3   1 <1>   0.1960 
  7 C        0.6230    -1.7600     0.2070 C.3   1 <1>   0.1960 
  8 C        2.3000     1.7230     1.3680 C.ar  1 <1>  -0.1500 
  9 C        3.0900     0.9800    -0.7540 C.ar  1 <1>  -0.1500 
 10 C       -0.6120    -2.6760    -2.1630 C.3   1 <1>   0.1200 
 11 C        0.7120    -3.2090    -0.3070 C.3   1 <1>   0.1200 
 12 C        3.5940     2.0280     1.7530 C.ar  1 <1>  -0.1500 
 13 C        4.3870     1.2800    -0.3790 C.ar  1 <1>  -0.1500 
 14 O       -0.4170    -3.5280    -1.0690 O.3   1 <1>  -0.5600 
 15 C        4.6480     1.8070     0.8740 C.ar  1 <1>   0.0820 
 16 O        5.9410     2.0790     1.1610 O.3   1 <1>  -0.3630 
 17 C        6.3160     2.6980     2.3850 C.3   1 <1>   0.1810 
 18 C        7.8150     2.9620     2.4310 C.2   1 <1>   0.5690 
 19 O        8.3030     3.3730     3.4560 O.2   1 <1>  -0.5700 
 20 N        8.5690     2.7370     1.3270 N.am  1 <1>  -0.7300 
 21 C       10.0270     2.8950     1.2470 C.3   1 <1>   0.2840 
 22 C       10.5110     2.1560     0.0130 C.ar  1 <1>  -0.1430 
 23 C       10.7250     0.7870     0.0600 C.ar  1 <1>  -0.1500 
 24 C       10.7350     2.8370    -1.1730 C.ar  1 <1>  -0.1500 
 25 C       11.1620     0.1090    -1.0650 C.ar  1 <1>  -0.1500 
 26 C       11.1720     2.1570    -2.2970 C.ar  1 <1>  -0.1500 
 27 C       11.3900     0.7900    -2.2490 C.ar  1 <1>  -0.1430 
 28 C       11.8670     0.0460    -3.4820 C.3   1 <1>  -0.0970 
 29 H       -0.8020    -0.5810    -2.5710 H     1 <1>   0.0800 
 30 H       -1.6210    -1.0900    -1.1200 H     1 <1>   0.0800 
 31 H       -0.2060    -1.6880     0.8910 H     1 <1>   0.0800 
 32 H        1.5240    -1.5240     0.7470 H     1 <1>   0.0800 
 33 H        1.4880     1.9000     2.0540 H     1 <1>   0.1500 
 34 H        2.8980     0.5740    -1.7340 H     1 <1>   0.1500 
 35 H        0.2130    -2.7950    -2.8440 H     1 <1>   0.0800 
 36 H       -1.5170    -2.9800    -2.6590 H     1 <1>   0.0800 
 37 H        0.7550    -3.8960     0.5190 H     1 <1>   0.0800 
 38 H        1.5890    -3.3410    -0.9170 H     1 <1>   0.0800 
 39 H        3.7550     2.4340     2.7340 H     1 <1>   0.1500 
 40 H        5.2020     1.1100    -1.0600 H     1 <1>   0.1500 
 41 H        6.0470     2.0440     3.1940 H     1 <1>   0.0800 
 42 H        5.7910     3.6310     2.4720 H     1 <1>   0.0800 
 43 H        8.1250     2.3500     0.4890 H     1 <1>   0.3700 
 44 H       10.4850     2.4910     2.1340 H     1 <1>   0.0800 
 45 H       10.2710     3.9410     1.1820 H     1 <1>   0.0800 
 46 H       10.5490     0.2450     0.9720 H     1 <1>   0.1500 
 47 H       10.5680     3.8980    -1.2280 H     1 <1>   0.1500 
 48 H       11.3230    -0.9540    -1.0130 H     1 <1>   0.1500 
 49 H       11.3410     2.6990    -3.2110 H     1 <1>   0.1500 
 50 H       11.0210    -0.2870    -4.0560 H     1 <1>   0.0800 
 51 H       12.4560    -0.8090    -3.2010 H     1 <1>   0.0800 
 52 H       12.4740     0.6870    -4.0970 H     1 <1>   0.0800 
@<TRIPOS>BOND
  1   1   2  2   
  2   1   3  2   
  3   1   4  am  
  4   1   5  1   
  5   4   6  1   
  6   4   7  1   
  7   5   8  ar  
  8   5   9  ar  
  9   6  10  1   
 10   6  29  1   
 11   6  30  1   
 12   7  11  1   
 13   7  31  1   
 14   7  32  1   
 15   8  12  ar  
 16   8  33  1   
 17   9  13  ar  
 18   9  34  1   
 19  10  14  1   
 20  10  35  1   
 21  10  36  1   
 22  11  14  1   
 23  11  37  1   
 24  11  38  1   
 25  12  15  ar  
 26  12  39  1   
 27  13  15  ar  
 28  13  40  1   
 29  15  16  1   
 30  16  17  1   
 31  17  18  1   
 32  17  41  1   
 33  17  42  1   
 34  18  19  2   
 35  18  20  am  
 36  20  21  1   
 37  20  43  1   
 38  21  22  1   
 39  21  44  1   
 40  21  45  1   
 41  22  23  ar  
 42  22  24  ar  
 43  23  25  ar  
 44  23  46  1   
 45  24  26  ar  
 46  24  47  1   
 47  25  27  ar  
 48  25  48  1   
 49  26  27  ar  
 50  26  49  1   
 51  27  28  1   
 52  28  50  1   
 53  28  51  1   
 54  28  52  1   
@<TRIPOS>SUBSTRUCTURE
  1 ****  13 GROUP 4 **** **** 0

# MOE 2024.06 (io_trps.svl 2023.06)
