@<TRIPOS>MOLECULE
3-(5-tert-Butyl-[1,2,4]oxadiazol-3-yl)-6-methoxy-quinolin-2-ol
39 41 1 0 0 
SMALL
USER_CHARGES


@<TRIPOS>ATOM
  1 O       -0.6660     0.1970    -1.3750 O.3   1 <1>  -0.0190 
  2 N       -1.5580    -0.7400    -1.4220 N.2   1 <1>  -0.4100 
  3 C       -1.1680     1.0850    -0.5550 C.2   1 <1>   0.2980 
  4 C       -2.5250    -0.4030    -0.6460 C.2   1 <1>   0.4700 
  5 N       -2.3080     0.7860    -0.0760 N.2   1 <1>  -0.5650 
  6 C       -0.3480     2.3570    -0.2680 C.3   1 <1>   0.1800 
  7 C       -3.7430    -1.1350    -0.4010 C.2   1 <1>   0.0600 
  8 C       -0.0940     3.1200    -1.5780 C.3   1 <1>  -0.2400 
  9 C       -1.0890     3.2940     0.7040 C.3   1 <1>  -0.2400 
 10 C        1.0010     1.9730     0.3610 C.3   1 <1>  -0.2400 
 11 C       -3.6960    -2.5690    -0.2720 C.2   1 <1>   0.6160 
 12 C       -4.9530    -0.5080    -0.2790 C.2   1 <1>  -0.1780 
 13 O       -2.6810    -3.2410    -0.2830 O.2   1 <1>  -0.5700 
 14 N       -4.8660    -3.2450    -0.0880 N.am  1 <1>  -0.5470 
 15 C       -6.1650    -1.2280    -0.0580 C.ar  1 <1>   0.0280 
 16 C       -6.1040    -2.6270     0.0320 C.ar  1 <1>   0.1170 
 17 C       -7.4070    -0.6040     0.0700 C.ar  1 <1>  -0.1500 
 18 C       -7.2680    -3.3610     0.2410 C.ar  1 <1>  -0.1500 
 19 C       -8.5580    -1.3340     0.2790 C.ar  1 <1>   0.0820 
 20 C       -8.4860    -2.7270     0.3640 C.ar  1 <1>  -0.1500 
 21 O       -9.7170    -0.6340     0.3900 O.3   1 <1>  -0.3630 
 22 C      -10.9480    -1.2860     0.6120 C.3   1 <1>   0.0400 
 23 H        0.4600     2.5100    -2.2700 H     1 <1>   0.0800 
 24 H        0.4680     4.0180    -1.3930 H     1 <1>   0.0800 
 25 H       -1.0280     3.3890    -2.0380 H     1 <1>   0.0800 
 26 H       -2.0360     3.5890     0.2890 H     1 <1>   0.0800 
 27 H       -0.5100     4.1780     0.9000 H     1 <1>   0.0800 
 28 H       -1.2730     2.7920     1.6380 H     1 <1>   0.0800 
 29 H        1.5670     1.3500    -0.3090 H     1 <1>   0.0800 
 30 H        0.8420     1.4280     1.2750 H     1 <1>   0.0800 
 31 H        1.5820     2.8500     0.5820 H     1 <1>   0.0800 
 32 H       -5.0220     0.5640    -0.3530 H     1 <1>   0.1500 
 33 H       -4.7680    -4.2560    -0.0040 H     1 <1>   0.3700 
 34 H       -7.4740     0.4670     0.0060 H     1 <1>   0.1500 
 35 H       -7.2110    -4.4330     0.3070 H     1 <1>   0.1500 
 36 H       -9.3670    -3.3200     0.5250 H     1 <1>   0.1500 
 37 H      -11.7170    -0.5370     0.6680 H     1 <1>   0.0800 
 38 H      -10.8960    -1.8250     1.5410 H     1 <1>   0.0800 
 39 H      -11.1460    -1.9500    -0.2110 H     1 <1>   0.0800 
@<TRIPOS>BOND
  1   1   2  1   
  2   1   3  1   
  3   2   4  2   
  4   3   5  2   
  5   3   6  1   
  6   4   5  1   
  7   4   7  1   
  8   6   8  1   
  9   6   9  1   
 10   6  10  1   
 11   7  11  1   
 12   7  12  2   
 13   8  23  1   
 14   8  24  1   
 15   8  25  1   
 16   9  26  1   
 17   9  27  1   
 18   9  28  1   
 19  10  29  1   
 20  10  30  1   
 21  10  31  1   
 22  11  13  2   
 23  11  14  am  
 24  12  15  1   
 25  12  32  1   
 26  14  16  1   
 27  14  33  1   
 28  15  16  ar  
 29  15  17  ar  
 30  16  18  ar  
 31  17  19  ar  
 32  17  34  1   
 33  18  20  ar  
 34  18  35  1   
 35  19  20  ar  
 36  19  21  1   
 37  20  36  1   
 38  21  22  1   
 39  22  37  1   
 40  22  38  1   
 41  22  39  1   
@<TRIPOS>SUBSTRUCTURE
  1 ****  12 GROUP 4 **** **** 0

# MOE 2024.06 (io_trps.svl 2023.06)
