@<TRIPOS>MOLECULE
1-Pyrrolidin-1-yl-2-([1,2,4]triazolo[3,4-b][1,3,4]thiadiazol-6-ylsulfanyl)-ethan
28 30 1 0 0 
SMALL
USER_CHARGES


@<TRIPOS>ATOM
  1 S        0.2350     0.1770     1.1510 S.3   1 <1>  -0.1970 
  2 C        1.1600    -0.2490    -0.3000 C.2   1 <1>   0.7320 
  3 C        0.0760     1.7850     0.4730 C.2   1 <1>   0.2430 
  4 S        1.7600    -1.9300    -0.4140 S.3   1 <1>  -0.3710 
  5 N        1.3220     0.6690    -1.1620 N.2   1 <1>  -0.6520 
  6 N       -0.4810     2.8860     0.8330 N.2   1 <1>  -0.3380 
  7 N        0.6960     1.8270    -0.6970 N.pl3 1 <1>   0.5050 
  8 C        1.2710    -2.7550     1.1820 C.3   1 <1>   0.1310 
  9 N       -0.2160     3.7410    -0.1740 N.2   1 <1>  -0.3380 
 10 C        0.4780     3.0960    -1.0640 C.2   1 <1>   0.0360 
 11 C        1.8650    -4.1530     1.2820 C.2   1 <1>   0.5690 
 12 O        2.7300    -4.3320     2.1070 O.2   1 <1>  -0.5700 
 13 N        1.4090    -5.1720     0.4890 N.am  1 <1>  -0.6600 
 14 C        1.9760    -6.5360     0.5590 C.3   1 <1>   0.1400 
 15 C        0.3910    -5.0740    -0.5800 C.3   1 <1>   0.1400 
 16 C        1.4290    -7.2500    -0.6720 C.3   1 <1>  -0.1600 
 17 C        0.1320    -6.5160    -1.0000 C.3   1 <1>  -0.1600 
 18 H        0.1990    -2.7960     1.2200 H     1 <1>   0.0800 
 19 H        1.6470    -2.1490     1.9860 H     1 <1>   0.0800 
 20 H        0.8460     3.4970    -1.9890 H     1 <1>   0.1500 
 21 H        1.6290    -7.0130     1.4600 H     1 <1>   0.0800 
 22 H        3.0530    -6.5060     0.5590 H     1 <1>   0.0800 
 23 H        0.7990    -4.5160    -1.4060 H     1 <1>   0.0800 
 24 H       -0.5090    -4.6010    -0.2240 H     1 <1>   0.0800 
 25 H        1.2760    -8.2990    -0.4910 H     1 <1>   0.0800 
 26 H        2.1300    -7.1330    -1.4810 H     1 <1>   0.0800 
 27 H       -0.1300    -6.5900    -2.0400 H     1 <1>   0.0800 
 28 H       -0.6720    -6.9150    -0.4070 H     1 <1>   0.0800 
@<TRIPOS>BOND
  1   1   2  1   
  2   1   3  1   
  3   2   4  1   
  4   2   5  2   
  5   3   6  2   
  6   3   7  1   
  7   4   8  1   
  8   5   7  1   
  9   6   9  1   
 10   7  10  1   
 11   8  11  1   
 12   8  18  1   
 13   8  19  1   
 14   9  10  2   
 15  10  20  1   
 16  11  12  2   
 17  11  13  am  
 18  13  14  1   
 19  13  15  1   
 20  14  16  1   
 21  14  21  1   
 22  14  22  1   
 23  15  17  1   
 24  15  23  1   
 25  15  24  1   
 26  16  17  1   
 27  16  25  1   
 28  16  26  1   
 29  17  27  1   
 30  17  28  1   
@<TRIPOS>SUBSTRUCTURE
  1 ****   4 GROUP 4 **** **** 0

# MOE 2024.06 (io_trps.svl 2023.06)
