@<TRIPOS>MOLECULE
N-Cyclohexyl-2-(6-methyl-thieno[2,3-d]pyrimidin-4-ylsulfanyl)-acetamide
40 42 1 0 0 
SMALL
USER_CHARGES


@<TRIPOS>ATOM
  1 S        0.6410    -1.0080    -1.0330 S.3   1 <1>  -0.0800 
  2 C        1.8510     0.2650    -1.1870 C.ar  1 <1>   0.2970 
  3 C       -0.1790    -0.1490     0.2750 C.2   1 <1>  -0.1400 
  4 N        2.8380     0.2370    -2.0570 N.ar  1 <1>  -0.5670 
  5 C        1.6030     1.2640    -0.2760 C.ar  1 <1>   0.0000 
  6 C        0.4470     1.0100     0.5450 C.2   1 <1>  -0.1500 
  7 C       -1.4040    -0.8140     0.8690 C.3   1 <1>  -0.0600 
  8 C        3.6180     1.3000    -1.9890 C.ar  1 <1>   0.4700 
  9 C        2.5120     2.3050    -0.3360 C.ar  1 <1>   0.4120 
 10 N        3.5210     2.3520    -1.1770 N.ar  1 <1>  -0.6200 
 11 S        2.3210     3.6840     0.7830 S.3   1 <1>  -0.3320 
 12 C        3.7600     4.7930     0.3870 C.3   1 <1>   0.1310 
 13 C        3.6640     6.1010     1.1600 C.2   1 <1>   0.5690 
 14 O        4.4700     6.3210     2.0280 O.2   1 <1>  -0.5700 
 15 N        2.7170     7.0310     0.8830 N.am  1 <1>  -0.7300 
 16 C        1.6250     6.9830    -0.1020 C.3   1 <1>   0.2200 
 17 C        1.7090     8.2230    -0.9960 C.3   1 <1>  -0.1600 
 18 C        0.2870     6.9250     0.6420 C.3   1 <1>  -0.1600 
 19 C        0.5320     8.2760    -1.9820 C.3   1 <1>  -0.1600 
 20 C       -0.8930     6.9700    -0.3400 C.3   1 <1>  -0.1600 
 21 C       -0.8130     8.2060    -1.2460 C.3   1 <1>  -0.1600 
 22 H        0.1520     1.7210     1.2980 H     1 <1>   0.1500 
 23 H       -2.1500    -0.9560     0.1070 H     1 <1>   0.0800 
 24 H       -1.8170    -0.2030     1.6510 H     1 <1>   0.0800 
 25 H       -1.1380    -1.7720     1.2790 H     1 <1>   0.0800 
 26 H        4.4430     1.3210    -2.6830 H     1 <1>   0.1500 
 27 H        3.7510     4.9770    -0.6700 H     1 <1>   0.0800 
 28 H        4.6520     4.2610     0.6590 H     1 <1>   0.0800 
 29 H        2.7320     7.8600     1.4780 H     1 <1>   0.3700 
 30 H        1.7180     6.1050    -0.7190 H     1 <1>   0.0800 
 31 H        2.6330     8.2070    -1.5460 H     1 <1>   0.0800 
 32 H        1.6910     9.1090    -0.3850 H     1 <1>   0.0800 
 33 H        0.2140     7.7590     1.3170 H     1 <1>   0.0800 
 34 H        0.2370     6.0170     1.2160 H     1 <1>   0.0800 
 35 H        0.6040     7.4490    -2.6690 H     1 <1>   0.0800 
 36 H        0.5820     9.1850    -2.5560 H     1 <1>   0.0800 
 37 H       -1.8180     6.9840     0.2100 H     1 <1>   0.0800 
 38 H       -0.8850     6.0810    -0.9480 H     1 <1>   0.0800 
 39 H       -1.6160     8.1810    -1.9630 H     1 <1>   0.0800 
 40 H       -0.9360     9.0930    -0.6480 H     1 <1>   0.0800 
@<TRIPOS>BOND
  1   1   2  1   
  2   1   3  1   
  3   2   4  ar  
  4   2   5  ar  
  5   3   6  2   
  6   3   7  1   
  7   4   8  ar  
  8   5   6  1   
  9   5   9  ar  
 10   6  22  1   
 11   7  23  1   
 12   7  24  1   
 13   7  25  1   
 14   8  10  ar  
 15   8  26  1   
 16   9  10  ar  
 17   9  11  1   
 18  11  12  1   
 19  12  13  1   
 20  12  27  1   
 21  12  28  1   
 22  13  14  2   
 23  13  15  am  
 24  15  16  1   
 25  15  29  1   
 26  16  17  1   
 27  16  18  1   
 28  16  30  1   
 29  17  19  1   
 30  17  31  1   
 31  17  32  1   
 32  18  20  1   
 33  18  33  1   
 34  18  34  1   
 35  19  21  1   
 36  19  35  1   
 37  19  36  1   
 38  20  21  1   
 39  20  37  1   
 40  20  38  1   
 41  21  39  1   
 42  21  40  1   
@<TRIPOS>SUBSTRUCTURE
  1 ****  11 GROUP 4 **** **** 0

# MOE 2024.06 (io_trps.svl 2023.06)
