@<TRIPOS>MOLECULE
7-(3-Chloro-benzyl)-1,3-dimethyl-8-morpholin-4-ylmethyl-3,7-dihydro-purine-2,6-d
51 54 1 0 0 
SMALL
USER_CHARGES


@<TRIPOS>ATOM
  1 CL       1.2190    -2.9270    -3.4330 Cl    1 <1>  -0.1770 
  2 C        1.3770    -3.2650    -1.7300 C.ar  1 <1>   0.1770 
  3 C        0.3600    -3.9410    -1.0820 C.ar  1 <1>  -0.1500 
  4 C        2.5150    -2.8620    -1.0590 C.ar  1 <1>  -0.1500 
  5 C        0.4840    -4.2340     0.2700 C.ar  1 <1>  -0.1440 
  6 C        2.6350    -3.1420     0.2910 C.ar  1 <1>  -0.1500 
  7 C        1.6240    -3.8210     0.9520 C.ar  1 <1>  -0.1500 
  8 C       -0.6160    -4.9960     0.9920 C.3   1 <1>   0.4980 
  9 N       -0.6470    -6.4380     0.5900 N.pl3 1 <1>  -0.7640 
 10 C       -1.7800    -7.2320     0.8150 C.2   1 <1>   0.2770 
 11 C        0.2610    -7.2260     0.0080 C.cat 1 <1>   0.6560 
 12 C       -3.0610    -7.0150     1.4250 C.2   1 <1>   0.7030 
 13 C       -1.5020    -8.4650     0.3320 C.2   1 <1>   0.4260 
 14 N       -0.2430    -8.4430    -0.1600 N.pl3 1 <1>  -0.7000 
 15 C        1.7040    -6.9300    -0.4470 C.3   1 <1>   0.2540 
 16 O       -3.3500    -5.9270     1.8950 O.2   1 <1>  -0.5700 
 17 N       -3.9560    -8.0750     1.4780 N.am  1 <1>  -0.4200 
 18 N       -2.3820    -9.5290     0.3790 N.am  1 <1>  -0.4360 
 19 N        2.4840    -8.1790    -0.6760 N.3   1 <1>  -0.8100 
 20 C       -3.6120    -9.3310     0.9880 C.2   1 <1>   0.6900 
 21 C       -5.3000    -7.8910     2.1110 C.3   1 <1>   0.0600 
 22 C       -2.0120   -10.8610    -0.1840 C.3   1 <1>   0.0600 
 23 C        3.6210    -7.9280    -1.5930 C.3   1 <1>   0.1100 
 24 C        3.0090    -8.7360     0.5950 C.3   1 <1>   0.1100 
 25 O       -4.3860   -10.2590     1.1030 O.2   1 <1>  -0.5700 
 26 C        4.4810    -9.1910    -1.7790 C.3   1 <1>   0.1200 
 27 C        3.8770    -9.9820     0.3410 C.3   1 <1>   0.1200 
 28 O        4.9140    -9.6680    -0.5380 O.3   1 <1>  -0.5600 
 29 H       -0.5120    -4.2290    -1.6430 H     1 <1>   0.1500 
 30 H        3.2900    -2.3340    -1.5870 H     1 <1>   0.1500 
 31 H        3.5150    -2.8240     0.8270 H     1 <1>   0.1500 
 32 H        1.7390    -4.0210     2.0050 H     1 <1>   0.1500 
 33 H       -1.5600    -4.5350     0.7510 H     1 <1>   0.0800 
 34 H       -0.4830    -4.9250     2.0590 H     1 <1>   0.0800 
 35 H        0.3160    -9.1900    -0.5860 H     1 <1>   0.4500 
 36 H        2.2070    -6.3210     0.2810 H     1 <1>   0.0800 
 37 H        1.6460    -6.3760    -1.3670 H     1 <1>   0.0800 
 38 H       -5.5870    -6.8540     2.1180 H     1 <1>   0.0800 
 39 H       -5.2740    -8.2560     3.1230 H     1 <1>   0.0800 
 40 H       -6.0460    -8.4430     1.5630 H     1 <1>   0.0800 
 41 H       -1.4230   -10.7430    -1.0760 H     1 <1>   0.0800 
 42 H       -2.8960   -11.4220    -0.4400 H     1 <1>   0.0800 
 43 H       -1.4520   -11.4200     0.5460 H     1 <1>   0.0800 
 44 H        4.2470    -7.1410    -1.2060 H     1 <1>   0.0800 
 45 H        3.2500    -7.6180    -2.5560 H     1 <1>   0.0800 
 46 H        2.1970    -9.0070     1.2460 H     1 <1>   0.0800 
 47 H        3.6140    -8.0020     1.1020 H     1 <1>   0.0800 
 48 H        5.3540    -8.9670    -2.3660 H     1 <1>   0.0800 
 49 H        3.9220    -9.9670    -2.2720 H     1 <1>   0.0800 
 50 H        3.2930   -10.7790    -0.0840 H     1 <1>   0.0800 
 51 H        4.3200   -10.3250     1.2590 H     1 <1>   0.0800 
@<TRIPOS>BOND
  1   1   2  1   
  2   2   3  ar  
  3   2   4  ar  
  4   3   5  ar  
  5   3  29  1   
  6   4   6  ar  
  7   4  30  1   
  8   5   7  ar  
  9   5   8  1   
 10   6   7  ar  
 11   6  31  1   
 12   7  32  1   
 13   8   9  1   
 14   8  33  1   
 15   8  34  1   
 16   9  10  1   
 17   9  11  ar  
 18  10  12  1   
 19  10  13  2   
 20  11  14  ar  
 21  11  15  1   
 22  12  16  2   
 23  12  17  am  
 24  13  14  1   
 25  13  18  1   
 26  14  35  1   
 27  15  19  1   
 28  15  36  1   
 29  15  37  1   
 30  17  20  am  
 31  17  21  1   
 32  18  20  am  
 33  18  22  1   
 34  19  23  1   
 35  19  24  1   
 36  20  25  2   
 37  21  38  1   
 38  21  39  1   
 39  21  40  1   
 40  22  41  1   
 41  22  42  1   
 42  22  43  1   
 43  23  26  1   
 44  23  44  1   
 45  23  45  1   
 46  24  27  1   
 47  24  46  1   
 48  24  47  1   
 49  26  28  1   
 50  26  48  1   
 51  26  49  1   
 52  27  28  1   
 53  27  50  1   
 54  27  51  1   
@<TRIPOS>SUBSTRUCTURE
  1 ****  11 GROUP 4 **** **** 0

# MOE 2024.06 (io_trps.svl 2023.06)
