@<TRIPOS>MOLECULE
N-[2-(Azepane-1-carbonyl)-phenyl]-N-methyl-methanesulfonamide
43 44 1 0 0 
SMALL
USER_CHARGES


@<TRIPOS>ATOM
  1 S        1.1200    -0.1020    -0.1470 S.o2  1 <1>   1.3330 
  2 O        0.2100     0.2240    -1.2170 O.2   1 <1>  -0.6500 
  3 O        2.0970    -1.1580    -0.2620 O.2   1 <1>  -0.6500 
  4 N        1.9490     1.3420     0.3460 N.am  1 <1>  -0.6930 
  5 C        0.1410    -0.4540     1.2970 C.3   1 <1>  -0.1350 
  6 C        1.5650     2.5910    -0.1490 C.ar  1 <1>   0.1990 
  7 C        3.3000     1.1430     0.9260 C.3   1 <1>   0.1160 
  8 C        2.3460     3.3550    -1.0380 C.ar  1 <1>   0.0860 
  9 C        0.3380     3.1030     0.2690 C.ar  1 <1>  -0.1500 
 10 C        3.6430     2.9290    -1.5090 C.2   1 <1>   0.5440 
 11 C        1.8480     4.5830    -1.4800 C.ar  1 <1>  -0.1500 
 12 C       -0.1300     4.3240    -0.1730 C.ar  1 <1>  -0.1500 
 13 O        3.7240     2.0010    -2.2920 O.2   1 <1>  -0.5700 
 14 N        4.8040     3.5680    -1.1030 N.am  1 <1>  -0.6600 
 15 C        0.6290     5.0680    -1.0560 C.ar  1 <1>  -0.1500 
 16 C        6.1030     3.2450    -1.7580 C.3   1 <1>   0.1400 
 17 C        4.7920     4.6540    -0.0790 C.3   1 <1>   0.1400 
 18 C        6.8540     2.1860    -0.9460 C.3   1 <1>  -0.1600 
 19 C        6.0870     4.7830     0.7370 C.3   1 <1>  -0.1600 
 20 C        7.5560     2.7280     0.3080 C.3   1 <1>  -0.1600 
 21 C        6.6350     3.4590     1.2960 C.3   1 <1>  -0.1600 
 22 H       -0.4060    -1.3650     1.1510 H     1 <1>   0.0800 
 23 H       -0.5570     0.3370     1.4790 H     1 <1>   0.0800 
 24 H        0.7740    -0.5670     2.1550 H     1 <1>   0.0800 
 25 H        3.2490     0.4540     1.7500 H     1 <1>   0.0800 
 26 H        3.6940     2.0800     1.2760 H     1 <1>   0.0800 
 27 H        3.9600     0.7380     0.1770 H     1 <1>   0.0800 
 28 H       -0.2620     2.5340     0.9510 H     1 <1>   0.1500 
 29 H        2.4360     5.1570    -2.1750 H     1 <1>   0.1500 
 30 H       -1.0840     4.6940     0.1620 H     1 <1>   0.1500 
 31 H        0.2660     6.0180    -1.4120 H     1 <1>   0.1500 
 32 H        6.6980     4.1340    -1.8730 H     1 <1>   0.0800 
 33 H        5.9180     2.8570    -2.7460 H     1 <1>   0.0800 
 34 H        3.9860     4.4730     0.6100 H     1 <1>   0.0800 
 35 H        4.5960     5.5910    -0.5730 H     1 <1>   0.0800 
 36 H        7.6040     1.7520    -1.5820 H     1 <1>   0.0800 
 37 H        6.1720     1.3970    -0.6820 H     1 <1>   0.0800 
 38 H        5.8720     5.4340     1.5660 H     1 <1>   0.0800 
 39 H        6.8400     5.2800     0.1510 H     1 <1>   0.0800 
 40 H        8.3500     3.3910     0.0090 H     1 <1>   0.0800 
 41 H        8.0140     1.8990     0.8200 H     1 <1>   0.0800 
 42 H        5.8300     2.8160     1.6000 H     1 <1>   0.0800 
 43 H        7.2150     3.6830     2.1750 H     1 <1>   0.0800 
@<TRIPOS>BOND
  1   1   2  2   
  2   1   3  2   
  3   1   4  am  
  4   1   5  1   
  5   4   6  1   
  6   4   7  1   
  7   5  22  1   
  8   5  23  1   
  9   5  24  1   
 10   6   8  ar  
 11   6   9  ar  
 12   7  25  1   
 13   7  26  1   
 14   7  27  1   
 15   8  10  1   
 16   8  11  ar  
 17   9  12  ar  
 18   9  28  1   
 19  10  13  2   
 20  10  14  am  
 21  11  15  ar  
 22  11  29  1   
 23  12  15  ar  
 24  12  30  1   
 25  14  16  1   
 26  14  17  1   
 27  15  31  1   
 28  16  18  1   
 29  16  32  1   
 30  16  33  1   
 31  17  19  1   
 32  17  34  1   
 33  17  35  1   
 34  18  20  1   
 35  18  36  1   
 36  18  37  1   
 37  19  21  1   
 38  19  38  1   
 39  19  39  1   
 40  20  21  1   
 41  20  40  1   
 42  20  41  1   
 43  21  42  1   
 44  21  43  1   
@<TRIPOS>SUBSTRUCTURE
  1 ****  10 GROUP 4 **** **** 0

# MOE 2024.06 (io_trps.svl 2023.06)
