@<TRIPOS>MOLECULE
[1-(3-Chloro-4-ethoxy-benzenesulfonyl)-piperidin-4-yl]-(4-methyl-piperazin-1-yl)
57 59 1 0 0 
SMALL
USER_CHARGES


@<TRIPOS>ATOM
  1 CL      -0.0610     0.3030    -1.6510 Cl    1 <1>  -0.1770 
  2 C        0.3490     1.7580    -0.7670 C.ar  1 <1>   0.1770 
  3 C        0.1480     1.8430     0.6070 C.ar  1 <1>   0.0830 
  4 C        0.8910     2.8160    -1.4720 C.ar  1 <1>  -0.1500 
  5 O       -0.3760     0.8300     1.3320 O.3   1 <1>  -0.3630 
  6 C        0.5220     3.0010     1.2670 C.ar  1 <1>  -0.1500 
  7 C        1.2610     3.9880    -0.8200 C.ar  1 <1>  -0.0090 
  8 C       -1.7520     0.5500     1.1860 C.3   1 <1>   0.1200 
  9 C        1.0660     4.0580     0.5570 C.ar  1 <1>  -0.1500 
 10 S        1.9690     5.3860    -1.7340 S.o2  1 <1>   1.4470 
 11 C       -2.5550     1.5100     2.0640 C.3   1 <1>  -0.2400 
 12 O        2.4750     4.9360    -3.0140 O.2   1 <1>  -0.6500 
 13 O        1.0390     6.4920    -1.6880 O.2   1 <1>  -0.6500 
 14 N        3.3230     5.8110    -0.8030 N.am  1 <1>  -0.8490 
 15 C        3.7700     7.1740    -1.0990 C.3   1 <1>   0.1960 
 16 C        4.4130     4.8420    -0.9430 C.3   1 <1>   0.1960 
 17 C        4.8870     7.5840    -0.1360 C.3   1 <1>  -0.1600 
 18 C        5.5480     5.1740     0.0300 C.3   1 <1>  -0.1600 
 19 C        6.0730     6.6040    -0.1880 C.3   1 <1>  -0.0190 
 20 C        7.1580     6.9690     0.8340 C.2   1 <1>   0.5690 
 21 O        6.8150     7.2200     1.9650 O.2   1 <1>  -0.5700 
 22 N        8.4910     7.0080     0.4970 N.am  1 <1>  -0.6600 
 23 C        9.4670     7.7100     1.3900 C.3   1 <1>   0.1400 
 24 C        9.1270     6.2260    -0.6080 C.3   1 <1>   0.1400 
 25 C       10.5050     6.7210     1.9460 C.3   1 <1>   0.3430 
 26 C       10.2120     5.2740    -0.0540 C.3   1 <1>   0.3430 
 27 N       11.2050     5.9730     0.8390 N.4   1 <1>  -0.9590 
 28 C       12.2010     5.0090     1.3990 C.3   1 <1>   0.2630 
 29 H        1.0290     2.7230    -2.5350 H     1 <1>   0.1500 
 30 H        0.3840     3.0690     2.3320 H     1 <1>   0.1500 
 31 H       -1.9090    -0.4670     1.5010 H     1 <1>   0.0800 
 32 H       -2.0320     0.6440     0.1520 H     1 <1>   0.0800 
 33 H        1.3480     4.9590     1.0800 H     1 <1>   0.1500 
 34 H       -2.2440     1.4220     3.0890 H     1 <1>   0.0800 
 35 H       -3.6000     1.2670     2.0010 H     1 <1>   0.0800 
 36 H       -2.4230     2.5240     1.7310 H     1 <1>   0.0800 
 37 H        2.9490     7.8620    -0.9790 H     1 <1>   0.0800 
 38 H        4.1110     7.2350    -2.1200 H     1 <1>   0.0800 
 39 H        4.7830     4.8490    -1.9560 H     1 <1>   0.0800 
 40 H        4.0470     3.8520    -0.7270 H     1 <1>   0.0800 
 41 H        4.4780     7.6180     0.8600 H     1 <1>   0.0800 
 42 H        5.2230     8.5750    -0.3820 H     1 <1>   0.0800 
 43 H        6.3440     4.4640    -0.0990 H     1 <1>   0.0800 
 44 H        5.1780     5.0730     1.0370 H     1 <1>   0.0800 
 45 H        6.4860     6.6740    -1.1760 H     1 <1>   0.0800 
 46 H        8.9600     8.1840     2.2140 H     1 <1>   0.0800 
 47 H        9.9630     8.4860     0.8350 H     1 <1>   0.0800 
 48 H        9.5650     6.9060    -1.3180 H     1 <1>   0.0800 
 49 H        8.3940     5.6360    -1.1280 H     1 <1>   0.0800 
 50 H        9.9970     6.0260     2.5950 H     1 <1>   0.0800 
 51 H       11.2240     7.2620     2.5380 H     1 <1>   0.0800 
 52 H       10.7280     4.8100    -0.8800 H     1 <1>   0.0800 
 53 H        9.7210     4.4930     0.5030 H     1 <1>   0.0800 
 54 H       11.7060     6.6690     0.2670 H     1 <1>   0.4500 
 55 H       11.7050     4.2690     2.0070 H     1 <1>   0.0800 
 56 H       12.9230     5.5270     2.0090 H     1 <1>   0.0800 
 57 H       12.7250     4.5050     0.6020 H     1 <1>   0.0800 
@<TRIPOS>BOND
  1   1   2  1   
  2   2   3  ar  
  3   2   4  ar  
  4   3   5  1   
  5   3   6  ar  
  6   4   7  ar  
  7   4  29  1   
  8   5   8  1   
  9   6   9  ar  
 10   6  30  1   
 11   7   9  ar  
 12   7  10  1   
 13   8  11  1   
 14   8  31  1   
 15   8  32  1   
 16   9  33  1   
 17  10  12  2   
 18  10  13  2   
 19  10  14  am  
 20  11  34  1   
 21  11  35  1   
 22  11  36  1   
 23  14  15  1   
 24  14  16  1   
 25  15  17  1   
 26  15  37  1   
 27  15  38  1   
 28  16  18  1   
 29  16  39  1   
 30  16  40  1   
 31  17  19  1   
 32  17  41  1   
 33  17  42  1   
 34  18  19  1   
 35  18  43  1   
 36  18  44  1   
 37  19  20  1   
 38  19  45  1   
 39  20  21  2   
 40  20  22  am  
 41  22  23  1   
 42  22  24  1   
 43  23  25  1   
 44  23  46  1   
 45  23  47  1   
 46  24  26  1   
 47  24  48  1   
 48  24  49  1   
 49  25  27  1   
 50  25  50  1   
 51  25  51  1   
 52  26  27  1   
 53  26  52  1   
 54  26  53  1   
 55  27  28  1   
 56  27  54  1   
 57  28  55  1   
 58  28  56  1   
 59  28  57  1   
@<TRIPOS>SUBSTRUCTURE
  1 ****  16 GROUP 4 **** **** 0

# MOE 2024.06 (io_trps.svl 2023.06)
