@<TRIPOS>MOLECULE
(1,6-Dimethyl-2,4-dioxo-8-o-tolyl-1,4,5,6,7,8-hexahydro-2H-1,3,4b,8,9-pentaaza-f
53 56 1 0 0 
SMALL
USER_CHARGES


@<TRIPOS>ATOM
  1 O        0.6820     0.5050    -0.9560 O.2   1 <1>  -0.5740 
  2 C        1.6900     1.1810    -0.9350 C.2   1 <1>   0.6860 
  3 N        1.5910     2.5650    -0.9460 N.am  1 <1>  -0.4250 
  4 N        2.9370     0.5700    -0.8930 N.am  1 <1>  -0.4410 
  5 C        2.7200     3.3680    -0.9160 C.2   1 <1>   0.7000 
  6 C        0.2850     3.1870    -0.5440 C.3   1 <1>   0.1940 
  7 C        4.0520     1.3790    -0.7890 C.2   1 <1>   0.4210 
  8 C        3.0580    -0.9180    -0.8770 C.3   1 <1>   0.0530 
  9 O        2.6180     4.5810    -0.9860 O.2   1 <1>  -0.5740 
 10 C        3.9940     2.7290    -0.8010 C.2   1 <1>   0.2710 
 11 C        0.1920     3.3520     0.9700 C.2   1 <1>   0.6550 
 12 N        5.3550     1.0010    -0.6550 N.pl3 1 <1>  -0.7040 
 13 N        5.3170     3.1760    -0.6750 N.pl3 1 <1>  -0.7670 
 14 O        1.1250     3.0960     1.6960 O.2   1 <1>  -0.5740 
 15 O       -0.9670     3.7990     1.4340 O.3   1 <1>  -0.4350 
 16 C        6.0920     2.1060    -0.5780 C.cat 1 <1>   1.0690 
 17 C        5.7990     4.5720    -0.6160 C.3   1 <1>   0.3480 
 18 C       -1.1920     3.9970     2.8150 C.3   1 <1>   0.0320 
 19 N        7.4250     2.1730    -0.4200 N.pl3 1 <1>  -0.5800 
 20 C        7.2890     4.6050    -1.0000 C.3   1 <1>  -0.0870 
 21 C        8.2240     1.0320    -0.2990 C.ar  1 <1>   0.3050 
 22 C        8.0870     3.5010    -0.2790 C.3   1 <1>   0.1610 
 23 C        7.8980     5.9850    -0.7090 C.3   1 <1>  -0.2460 
 24 C        8.3050     0.3210     0.9010 C.ar  1 <1>  -0.1510 
 25 C        8.9250     0.5820    -1.4110 C.ar  1 <1>  -0.1570 
 26 C        9.0730    -0.8320     0.9550 C.ar  1 <1>  -0.1570 
 27 C        7.5820     0.7760     2.1650 C.3   1 <1>  -0.1040 
 28 C        9.6890    -0.5670    -1.3460 C.ar  1 <1>  -0.1570 
 29 C        9.7590    -1.2760    -0.1610 C.ar  1 <1>  -0.1570 
 30 H       -0.5380     2.5810    -0.8780 H     1 <1>   0.0730 
 31 H        0.1810     4.1530    -1.0040 H     1 <1>   0.0730 
 32 H        2.1970    -1.3710    -1.3410 H     1 <1>   0.0730 
 33 H        3.1220    -1.2650     0.1390 H     1 <1>   0.0730 
 34 H        3.9320    -1.2300    -1.4210 H     1 <1>   0.0730 
 35 H        5.7380     0.0610    -0.5940 H     1 <1>   0.4450 
 36 H        5.6610     4.9490     0.3840 H     1 <1>   0.0730 
 37 H        5.2310     5.1880    -1.2930 H     1 <1>   0.0730 
 38 H       -2.1950     4.3630     2.9480 H     1 <1>   0.0730 
 39 H       -0.4830     4.7170     3.1850 H     1 <1>   0.0730 
 40 H       -1.0700     3.0580     3.3270 H     1 <1>   0.0730 
 41 H        7.3660     4.4370    -2.0610 H     1 <1>   0.0730 
 42 H        9.0830     3.4520    -0.6880 H     1 <1>   0.0730 
 43 H        8.1710     3.7350     0.7700 H     1 <1>   0.0730 
 44 H        7.8560     6.2140     0.3430 H     1 <1>   0.0730 
 45 H        7.3670     6.7530    -1.2460 H     1 <1>   0.0730 
 46 H        8.9280     6.0140    -1.0210 H     1 <1>   0.0730 
 47 H        8.8740     1.1310    -2.3340 H     1 <1>   0.1430 
 48 H        9.1510    -1.3970     1.8700 H     1 <1>   0.1430 
 49 H        6.5230     0.6220     2.0730 H     1 <1>   0.0730 
 50 H        7.7720     1.8180     2.3540 H     1 <1>   0.0730 
 51 H        7.9260     0.2230     3.0220 H     1 <1>   0.0730 
 52 H       10.2320    -0.9130    -2.2110 H     1 <1>   0.1430 
 53 H       10.3540    -2.1730    -0.1060 H     1 <1>   0.1430 
@<TRIPOS>BOND
  1   1   2  2   
  2   2   3  am  
  3   2   4  am  
  4   3   5  am  
  5   3   6  1   
  6   4   7  1   
  7   4   8  1   
  8   5   9  2   
  9   5  10  1   
 10   6  11  1   
 11   6  30  1   
 12   6  31  1   
 13   7  10  2   
 14   7  12  1   
 15   8  32  1   
 16   8  33  1   
 17   8  34  1   
 18  10  13  1   
 19  11  14  2   
 20  11  15  1   
 21  12  16  ar  
 22  12  35  1   
 23  13  16  ar  
 24  13  17  1   
 25  15  18  1   
 26  16  19  ar  
 27  17  20  1   
 28  17  36  1   
 29  17  37  1   
 30  18  38  1   
 31  18  39  1   
 32  18  40  1   
 33  19  21  1   
 34  19  22  1   
 35  20  22  1   
 36  20  23  1   
 37  20  41  1   
 38  21  24  ar  
 39  21  25  ar  
 40  22  42  1   
 41  22  43  1   
 42  23  44  1   
 43  23  45  1   
 44  23  46  1   
 45  24  26  ar  
 46  24  27  1   
 47  25  28  ar  
 48  25  47  1   
 49  26  29  ar  
 50  26  48  1   
 51  27  49  1   
 52  27  50  1   
 53  27  51  1   
 54  28  29  ar  
 55  28  52  1   
 56  29  53  1   
@<TRIPOS>SUBSTRUCTURE
  1 ****   7 GROUP 4 **** **** 0

# MOE 2024.06 (io_trps.svl 2023.06)
