@<TRIPOS>MOLECULE
3-Ethyl-8-(3-methoxy-phenyl)-1,6-dimethyl-5,6,7,8-tetrahydro-1H-1,3,4b,8,9-penta
51 54 1 0 0 
SMALL
USER_CHARGES


@<TRIPOS>ATOM
  1 O        1.2110    -0.3680    -0.1280 O.2   1 <1>  -0.5740 
  2 C        2.0920     0.4660    -0.1030 C.2   1 <1>   0.6860 
  3 N        1.7760     1.8180     0.0150 N.am  1 <1>  -0.4250 
  4 N        3.4200     0.0660    -0.1990 N.am  1 <1>  -0.4410 
  5 C        2.7660     2.7910     0.0030 C.2   1 <1>   0.6990 
  6 C        0.3500     2.2250     0.1810 C.3   1 <1>   0.1330 
  7 C        4.3930     1.0450    -0.2180 C.2   1 <1>   0.4210 
  8 C        3.7790    -1.3800    -0.2990 C.3   1 <1>   0.0520 
  9 O        2.4900     3.9760     0.0970 O.2   1 <1>  -0.5740 
 10 C        4.1250     2.3650    -0.1240 C.2   1 <1>   0.2710 
 11 C       -0.0050     2.2710     1.6670 C.3   1 <1>  -0.2470 
 12 N        5.7410     0.8830    -0.3310 N.pl3 1 <1>  -0.7040 
 13 N        5.3640     3.0190    -0.1810 N.pl3 1 <1>  -0.7670 
 14 C        6.3020     2.0900    -0.2990 C.cat 1 <1>   1.0690 
 15 C        5.6220     4.4730    -0.1200 C.3   1 <1>   0.3480 
 16 N        7.6170     2.3700    -0.3690 N.pl3 1 <1>  -0.5800 
 17 C        6.9990     4.7680    -0.7440 C.3   1 <1>  -0.0880 
 18 C        8.5960     1.3740    -0.4330 C.ar  1 <1>   0.3050 
 19 C        8.0720     3.7840    -0.2370 C.3   1 <1>   0.1610 
 20 C        7.4260     6.2180    -0.4690 C.3   1 <1>  -0.2470 
 21 C        8.7540     0.4840     0.6190 C.ar  1 <1>  -0.1570 
 22 C        9.3980     1.2400    -1.5590 C.ar  1 <1>  -0.1570 
 23 C        9.6770    -0.5420     0.5440 C.ar  1 <1>   0.0750 
 24 C       10.3330     0.2240    -1.6370 C.ar  1 <1>  -0.1570 
 25 O        9.7370    -1.3730     1.6110 O.3   1 <1>  -0.3680 
 26 C       10.4730    -0.6710    -0.5900 C.ar  1 <1>  -0.1570 
 27 C       10.7170    -2.3850     1.6960 C.3   1 <1>   0.0320 
 28 H       -0.2960     1.5280    -0.3250 H     1 <1>   0.0720 
 29 H        0.1870     3.1940    -0.2620 H     1 <1>   0.0720 
 30 H        2.9910    -1.9960     0.1000 H     1 <1>   0.0720 
 31 H        4.6750    -1.5840     0.2600 H     1 <1>   0.0720 
 32 H        3.9310    -1.6450    -1.3310 H     1 <1>   0.0720 
 33 H        0.1210     1.3010     2.1140 H     1 <1>   0.0720 
 34 H       -1.0350     2.5610     1.7790 H     1 <1>   0.0720 
 35 H        0.6050     2.9920     2.1820 H     1 <1>   0.0720 
 36 H        6.2620     0.0130    -0.4210 H     1 <1>   0.4450 
 37 H        5.6020     4.7910     0.9100 H     1 <1>   0.0720 
 38 H        4.8550     5.0090    -0.6560 H     1 <1>   0.0720 
 39 H        6.9150     4.6540    -1.8110 H     1 <1>   0.0720 
 40 H        8.9810     3.9280    -0.7970 H     1 <1>   0.0720 
 41 H        8.2880     3.9800     0.8010 H     1 <1>   0.0720 
 42 H        7.5330     6.3970     0.5880 H     1 <1>   0.0720 
 43 H        6.6950     6.9060    -0.8590 H     1 <1>   0.0720 
 44 H        8.3680     6.4290    -0.9460 H     1 <1>   0.0720 
 45 H        8.1660     0.5790     1.5120 H     1 <1>   0.1430 
 46 H        9.2920     1.9270    -2.3790 H     1 <1>   0.1430 
 47 H       10.9550     0.1240    -2.5120 H     1 <1>   0.1430 
 48 H       11.2020    -1.4570    -0.6740 H     1 <1>   0.1430 
 49 H       10.6010    -2.8850     2.6400 H     1 <1>   0.0720 
 50 H       11.6920    -1.9330     1.6400 H     1 <1>   0.0720 
 51 H       10.5700    -3.0850     0.8920 H     1 <1>   0.0720 
@<TRIPOS>BOND
  1   1   2  2   
  2   2   3  am  
  3   2   4  am  
  4   3   5  am  
  5   3   6  1   
  6   4   7  1   
  7   4   8  1   
  8   5   9  2   
  9   5  10  1   
 10   6  11  1   
 11   6  28  1   
 12   6  29  1   
 13   7  10  2   
 14   7  12  1   
 15   8  30  1   
 16   8  31  1   
 17   8  32  1   
 18  10  13  1   
 19  11  33  1   
 20  11  34  1   
 21  11  35  1   
 22  12  14  ar  
 23  12  36  1   
 24  13  14  ar  
 25  13  15  1   
 26  14  16  ar  
 27  15  17  1   
 28  15  37  1   
 29  15  38  1   
 30  16  18  1   
 31  16  19  1   
 32  17  19  1   
 33  17  20  1   
 34  17  39  1   
 35  18  21  ar  
 36  18  22  ar  
 37  19  40  1   
 38  19  41  1   
 39  20  42  1   
 40  20  43  1   
 41  20  44  1   
 42  21  23  ar  
 43  21  45  1   
 44  22  24  ar  
 45  22  46  1   
 46  23  25  1   
 47  23  26  ar  
 48  24  26  ar  
 49  24  47  1   
 50  25  27  1   
 51  26  48  1   
 52  27  49  1   
 53  27  50  1   
 54  27  51  1   
@<TRIPOS>SUBSTRUCTURE
  1 ****  12 GROUP 4 **** **** 0

# MOE 2024.06 (io_trps.svl 2023.06)
