@<TRIPOS>MOLECULE
2-Amino-4-(2-cyanomethoxy-phenyl)-7,7-dimethyl-5-oxo-5,6,7,8-tetrahydro-4H-chrom
50 52 1 0 0 
SMALL
USER_CHARGES


@<TRIPOS>ATOM
  1 O        0.7440     0.5250    -1.5440 O.2   1 <1>  -0.5700 
  2 C        1.2910     1.1970    -0.7070 C.2   1 <1>   0.4950 
  3 C        0.8820     2.5180    -0.3430 C.2   1 <1>  -0.1240 
  4 C        2.5410     0.6320    -0.0490 C.3   1 <1>  -0.0990 
  5 C        1.5630     3.2780     0.5380 C.2   1 <1>  -0.0620 
  6 C       -0.3820     3.0640    -0.9920 C.3   1 <1>   0.3400 
  7 C        2.8260     1.2310     1.3480 C.3   1 <1>   0.0000 
  8 O        1.2260     4.5370     0.8320 O.3   1 <1>  -0.1530 
  9 C        2.7870     2.7770     1.2860 C.3   1 <1>  -0.0220 
 10 C       -0.5530     4.5630    -0.7420 C.2   1 <1>  -0.1240 
 11 C       -1.6260     2.3100    -0.4920 C.ar  1 <1>  -0.1440 
 12 C        1.7780     0.7190     2.3540 C.3   1 <1>  -0.2400 
 13 C        4.2120     0.7720     1.8290 C.3   1 <1>  -0.2400 
 14 C        0.2380     5.1780     0.1900 C.2   1 <1>   0.1770 
 15 C       -1.5680     5.1740    -1.5270 C.2   1 <1>   0.7060 
 16 C       -1.9690     2.2230     0.8570 C.ar  1 <1>   0.0820 
 17 C       -2.4530     1.6960    -1.4220 C.ar  1 <1>  -0.1500 
 18 N        0.1400     6.4790     0.5840 N.pl3 1 <1>  -0.9000 
 19 O       -2.0600     4.6530    -2.5150 O.2   1 <1>  -0.5700 
 20 O       -2.0220     6.3950    -1.1870 O.3   1 <1>  -0.4300 
 21 O       -1.1910     2.7930     1.8000 O.3   1 <1>  -0.3630 
 22 C       -3.1030     1.5280     1.2570 C.ar  1 <1>  -0.1500 
 23 C       -3.5900     1.0120    -1.0260 C.ar  1 <1>  -0.1500 
 24 C       -3.0300     7.0450    -1.9390 C.3   1 <1>   0.0400 
 25 C       -1.7310     3.8770     2.5280 C.3   1 <1>   0.3200 
 26 C       -3.9160     0.9270     0.3150 C.ar  1 <1>  -0.1500 
 27 C       -0.7080     4.4110     3.4740 C.1   1 <1>   0.3570 
 28 N        0.0450     4.8360     4.2150 N.1   1 <1>  -0.5570 
 29 H        3.3670     0.8350    -0.7060 H     1 <1>   0.0800 
 30 H        2.4400    -0.4360     0.0240 H     1 <1>   0.0800 
 31 H       -0.2740     2.9140    -2.0530 H     1 <1>   0.0800 
 32 H        2.7810     3.1750     2.2870 H     1 <1>   0.0800 
 33 H        3.6630     3.1560     0.7900 H     1 <1>   0.0800 
 34 H        0.7830     1.0000     2.0620 H     1 <1>   0.0800 
 35 H        1.9630     1.1260     3.3330 H     1 <1>   0.0800 
 36 H        1.8120    -0.3540     2.4240 H     1 <1>   0.0800 
 37 H        4.9810     1.1050     1.1530 H     1 <1>   0.0800 
 38 H        4.2560    -0.3010     1.8880 H     1 <1>   0.0800 
 39 H        4.4240     1.1730     2.8050 H     1 <1>   0.0800 
 40 H       -2.2180     1.7450    -2.4720 H     1 <1>   0.1500 
 41 H       -0.5420     7.1270     0.1710 H     1 <1>   0.4000 
 42 H        0.7640     6.8760     1.2950 H     1 <1>   0.4000 
 43 H       -3.3460     1.4440     2.3000 H     1 <1>   0.1500 
 44 H       -4.2170     0.5440    -1.7650 H     1 <1>   0.1500 
 45 H       -2.6790     7.1840    -2.9470 H     1 <1>   0.0800 
 46 H       -3.2370     7.9970    -1.4840 H     1 <1>   0.0800 
 47 H       -3.9160     6.4330    -1.9360 H     1 <1>   0.0800 
 48 H       -2.5890     3.5340     3.0750 H     1 <1>   0.0800 
 49 H       -2.0230     4.6420     1.8320 H     1 <1>   0.0800 
 50 H       -4.7960     0.3880     0.6210 H     1 <1>   0.1500 
@<TRIPOS>BOND
  1   1   2  2   
  2   2   3  1   
  3   2   4  1   
  4   3   5  2   
  5   3   6  1   
  6   4   7  1   
  7   4  29  1   
  8   4  30  1   
  9   5   8  1   
 10   5   9  1   
 11   6  10  1   
 12   6  11  1   
 13   6  31  1   
 14   7   9  1   
 15   7  12  1   
 16   7  13  1   
 17   8  14  1   
 18   9  32  1   
 19   9  33  1   
 20  10  14  2   
 21  10  15  1   
 22  11  16  ar  
 23  11  17  ar  
 24  12  34  1   
 25  12  35  1   
 26  12  36  1   
 27  13  37  1   
 28  13  38  1   
 29  13  39  1   
 30  14  18  1   
 31  15  19  2   
 32  15  20  1   
 33  16  21  1   
 34  16  22  ar  
 35  17  23  ar  
 36  17  40  1   
 37  18  41  1   
 38  18  42  1   
 39  20  24  1   
 40  21  25  1   
 41  22  26  ar  
 42  22  43  1   
 43  23  26  ar  
 44  23  44  1   
 45  24  45  1   
 46  24  46  1   
 47  24  47  1   
 48  25  27  1   
 49  25  48  1   
 50  25  49  1   
 51  26  50  1   
 52  27  28  3   
@<TRIPOS>SUBSTRUCTURE
  1 ****   6 GROUP 4 **** **** 0

# MOE 2024.06 (io_trps.svl 2023.06)
