@<TRIPOS>MOLECULE
4-(3-Chloro-4-methoxy-benzenesulfonyl)-morpholine
32 33 1 0 0 
SMALL
USER_CHARGES


@<TRIPOS>ATOM
  1 CL       0.0530     0.0480    -0.8610 Cl    1 <1>  -0.1770 
  2 C        1.5700    -0.7750    -0.5680 C.ar  1 <1>   0.1770 
  3 C        1.6070    -1.9200     0.2190 C.ar  1 <1>   0.0830 
  4 C        2.7140    -0.2510    -1.1380 C.ar  1 <1>  -0.1500 
  5 O        0.4450    -2.3820     0.7490 O.3   1 <1>  -0.3630 
  6 C        2.8380    -2.5360     0.4240 C.ar  1 <1>  -0.1500 
  7 C        3.9470    -0.8600    -0.9360 C.ar  1 <1>  -0.0090 
  8 C        0.3930    -3.5640     1.5170 C.3   1 <1>   0.0400 
  9 C        3.9840    -2.0060    -0.1480 C.ar  1 <1>  -0.1500 
 10 S        5.4660    -0.1770    -1.6560 S.o2  1 <1>   1.4470 
 11 O        6.2080    -1.2460    -2.2880 O.2   1 <1>  -0.6500 
 12 O        5.1690     1.0260    -2.4020 O.2   1 <1>  -0.6500 
 13 N        6.3520     0.2950    -0.2910 N.am  1 <1>  -0.8490 
 14 C        7.7650     0.5310    -0.6260 C.3   1 <1>   0.1960 
 15 C        5.8020     1.4970     0.3580 C.3   1 <1>   0.1960 
 16 C        8.5670     0.9690     0.6140 C.3   1 <1>   0.1200 
 17 C        6.6470     1.9000     1.5810 C.3   1 <1>   0.1200 
 18 O        7.9820     2.0930     1.2100 O.3   1 <1>  -0.5600 
 19 H        2.6390     0.6360    -1.7430 H     1 <1>   0.1500 
 20 H        2.9250    -3.4240     1.0220 H     1 <1>   0.1500 
 21 H       -0.6290    -3.7280     1.8050 H     1 <1>   0.0800 
 22 H        1.0030    -3.4390     2.3940 H     1 <1>   0.0800 
 23 H        0.7400    -4.3870     0.9180 H     1 <1>   0.0800 
 24 H        4.9330    -2.4910     0.0180 H     1 <1>   0.1500 
 25 H        7.8430     1.2920    -1.3850 H     1 <1>   0.0800 
 26 H        8.2010    -0.3730    -1.0170 H     1 <1>   0.0800 
 27 H        4.7920     1.3080     0.6780 H     1 <1>   0.0800 
 28 H        5.7850     2.3230    -0.3340 H     1 <1>   0.0800 
 29 H        9.5720     1.2300     0.3350 H     1 <1>   0.0800 
 30 H        8.6020     0.1750     1.3380 H     1 <1>   0.0800 
 31 H        6.6060     1.1360     2.3370 H     1 <1>   0.0800 
 32 H        6.2850     2.8230     1.9970 H     1 <1>   0.0800 
@<TRIPOS>BOND
  1   1   2  1   
  2   2   3  ar  
  3   2   4  ar  
  4   3   5  1   
  5   3   6  ar  
  6   4   7  ar  
  7   4  19  1   
  8   5   8  1   
  9   6   9  ar  
 10   6  20  1   
 11   7   9  ar  
 12   7  10  1   
 13   8  21  1   
 14   8  22  1   
 15   8  23  1   
 16   9  24  1   
 17  10  11  2   
 18  10  12  2   
 19  10  13  am  
 20  13  14  1   
 21  13  15  1   
 22  14  16  1   
 23  14  25  1   
 24  14  26  1   
 25  15  17  1   
 26  15  27  1   
 27  15  28  1   
 28  16  18  1   
 29  16  29  1   
 30  16  30  1   
 31  17  18  1   
 32  17  31  1   
 33  17  32  1   
@<TRIPOS>SUBSTRUCTURE
  1 ****   7 GROUP 4 **** **** 0

# MOE 2024.06 (io_trps.svl 2023.06)
