@<TRIPOS>MOLECULE
1-(6-Ethyl-2-methyl-thieno[2,3-d]pyrimidin-4-yl)-piperidine-4-carboxylic acid
39 41 1 0 0 
SMALL
USER_CHARGES


@<TRIPOS>ATOM
  1 S        0.0310    -0.3210    -0.7050 S.3   1 <1>  -0.0800 
  2 C        1.4020     0.7730    -0.5230 C.ar  1 <1>   0.2970 
  3 C       -1.0900     0.8800    -0.0560 C.2   1 <1>  -0.1400 
  4 N        2.6360     0.4390    -0.8340 N.ar  1 <1>  -0.5670 
  5 C        0.9860     1.9780    -0.0180 C.ar  1 <1>   0.0000 
  6 C       -0.4280     2.0110     0.2540 C.2   1 <1>  -0.1500 
  7 C       -2.5430     0.4520     0.0460 C.3   1 <1>   0.0200 
  8 C        3.4930     1.4130    -0.5980 C.ar  1 <1>   0.4770 
  9 C        1.9950     2.9280     0.1530 C.ar  1 <1>   0.4100 
 10 C       -3.4330     1.5590     0.6180 C.3   1 <1>  -0.2400 
 11 N        3.2540     2.6220    -0.1160 N.ar  1 <1>  -0.6200 
 12 C        4.9410     1.1240    -0.9140 C.3   1 <1>  -0.0960 
 13 N        1.7280     4.2080     0.5960 N.pl3 1 <1>  -0.8380 
 14 C        2.7010     4.9440     1.4560 C.3   1 <1>   0.2090 
 15 C        0.7450     5.0670    -0.1240 C.3   1 <1>   0.2090 
 16 C        3.3990     6.0560     0.6680 C.3   1 <1>  -0.1600 
 17 C        1.4520     6.1830    -0.8950 C.3   1 <1>  -0.1600 
 18 C        2.3830     7.0090     0.0140 C.3   1 <1>  -0.1860 
 19 C        3.0740     8.1700    -0.7000 C.2   1 <1>   0.9060 
 20 O        3.1100     8.2060    -1.9350 O.co2 1 <1>  -0.9000 
 21 O        3.5660     9.0620     0.0000 O.co2 1 <1>  -0.9000 
 22 H       -0.8640     2.8960     0.6790 H     1 <1>   0.1500 
 23 H       -2.6070    -0.4180     0.6770 H     1 <1>   0.0800 
 24 H       -2.8970     0.1800    -0.9330 H     1 <1>   0.0800 
 25 H       -3.1030     1.8270     1.6060 H     1 <1>   0.0800 
 26 H       -4.4510     1.2190     0.6750 H     1 <1>   0.0800 
 27 H       -3.3950     2.4300    -0.0130 H     1 <1>   0.0800 
 28 H        5.0440     0.1590    -1.3760 H     1 <1>   0.0800 
 29 H        5.5130     1.1440    -0.0060 H     1 <1>   0.0800 
 30 H        5.3150     1.8760    -1.5830 H     1 <1>   0.0800 
 31 H        3.4370     4.2640     1.8490 H     1 <1>   0.0800 
 32 H        2.1710     5.3750     2.2860 H     1 <1>   0.0800 
 33 H        0.0690     5.4980     0.5930 H     1 <1>   0.0800 
 34 H        0.1750     4.4760    -0.8190 H     1 <1>   0.0800 
 35 H        4.0210     5.6140    -0.0910 H     1 <1>   0.0800 
 36 H        4.0370     6.6160     1.3280 H     1 <1>   0.0800 
 37 H        0.7220     6.8340    -1.3410 H     1 <1>   0.0800 
 38 H        2.0270     5.7490    -1.6950 H     1 <1>   0.0800 
 39 H        1.7900     7.4560     0.7890 H     1 <1>   0.0800 
@<TRIPOS>BOND
  1   1   2  1   
  2   1   3  1   
  3   2   4  ar  
  4   2   5  ar  
  5   3   6  2   
  6   3   7  1   
  7   4   8  ar  
  8   5   6  1   
  9   5   9  ar  
 10   6  22  1   
 11   7  10  1   
 12   7  23  1   
 13   7  24  1   
 14   8  11  ar  
 15   8  12  1   
 16   9  11  ar  
 17   9  13  1   
 18  10  25  1   
 19  10  26  1   
 20  10  27  1   
 21  12  28  1   
 22  12  29  1   
 23  12  30  1   
 24  13  14  1   
 25  13  15  1   
 26  14  16  1   
 27  14  31  1   
 28  14  32  1   
 29  15  17  1   
 30  15  33  1   
 31  15  34  1   
 32  16  18  1   
 33  16  35  1   
 34  16  36  1   
 35  17  18  1   
 36  17  37  1   
 37  17  38  1   
 38  18  19  1   
 39  18  39  1   
 40  19  20  ar  
 41  19  21  ar  
@<TRIPOS>SUBSTRUCTURE
  1 ****   9 GROUP 4 **** **** 0

# MOE 2024.06 (io_trps.svl 2023.06)
