@<TRIPOS>MOLECULE
8-(2-Ethyl-piperidin-1-ylmethyl)-7-(2-fluoro-benzyl)-1,3-dimethyl-3,7-dihydro-pu
59 62 1 0 0 
SMALL
USER_CHARGES


@<TRIPOS>ATOM
  1 F        0.6220    -2.1840     1.2110 F     1 <1>  -0.1900 
  2 C       -0.3060    -1.5160     0.5780 C.ar  1 <1>   0.1900 
  3 C       -1.6270    -1.9210     0.6880 C.ar  1 <1>  -0.1440 
  4 C        0.0820    -0.4280    -0.1800 C.ar  1 <1>  -0.1500 
  5 C       -2.5880    -1.1830     0.0100 C.ar  1 <1>  -0.1500 
  6 C       -2.0130    -3.1280     1.5260 C.3   1 <1>   0.4980 
  7 C       -0.8890     0.2900    -0.8550 C.ar  1 <1>  -0.1500 
  8 C       -2.2190    -0.0880    -0.7570 C.ar  1 <1>  -0.1500 
  9 N       -2.2190    -4.2990     0.6280 N.pl3 1 <1>  -0.7640 
 10 C       -3.4660    -4.7310     0.1550 C.2   1 <1>   0.2770 
 11 C       -1.3040    -5.1000     0.0900 C.cat 1 <1>   0.6560 
 12 C       -4.8270    -4.3090     0.3310 C.2   1 <1>   0.7030 
 13 C       -3.2270    -5.7970    -0.6470 C.2   1 <1>   0.4260 
 14 N       -1.8920    -6.0080    -0.6750 N.pl3 1 <1>  -0.7000 
 15 C        0.2250    -5.0790     0.2500 C.3   1 <1>   0.2540 
 16 O       -5.1050    -3.3720     1.0580 O.2   1 <1>  -0.5700 
 17 N       -5.8250    -4.9970    -0.3480 N.am  1 <1>  -0.4200 
 18 N       -4.2140    -6.5110    -1.3000 N.am  1 <1>  -0.4360 
 19 N        0.8330    -6.3630    -0.2170 N.3   1 <1>  -0.8100 
 20 C       -5.5270    -6.0940    -1.1500 C.2   1 <1>   0.6900 
 21 C       -7.2560    -4.5830    -0.2010 C.3   1 <1>   0.0600 
 22 C       -3.8650    -7.6810    -2.1590 C.3   1 <1>   0.0600 
 23 C        1.1370    -7.3240     0.8810 C.3   1 <1>   0.1900 
 24 C        2.0360    -6.0690    -1.0220 C.3   1 <1>   0.1100 
 25 O       -6.4210    -6.6880    -1.7190 O.2   1 <1>  -0.5700 
 26 C        1.6930    -8.6290     0.2740 C.3   1 <1>  -0.1600 
 27 C       -0.1170    -7.6250     1.7360 C.3   1 <1>  -0.1600 
 28 C        2.5600    -7.3400    -1.6870 C.3   1 <1>  -0.1600 
 29 C        2.9020    -8.3920    -0.6340 C.3   1 <1>  -0.1600 
 30 C        0.1370    -8.5880     2.9060 C.3   1 <1>  -0.2400 
 31 H        1.1190    -0.1460    -0.2390 H     1 <1>   0.1500 
 32 H       -3.6310    -1.4440     0.0720 H     1 <1>   0.1500 
 33 H       -2.9120    -2.9140     2.0770 H     1 <1>   0.0800 
 34 H       -1.2460    -3.3530     2.2480 H     1 <1>   0.0800 
 35 H       -0.6140     1.1440    -1.4520 H     1 <1>   0.1500 
 36 H       -2.9720     0.4790    -1.2790 H     1 <1>   0.1500 
 37 H       -1.3330    -6.7270    -1.1490 H     1 <1>   0.4500 
 38 H        0.4980    -4.8820     1.2710 H     1 <1>   0.0800 
 39 H        0.5880    -4.2600    -0.3460 H     1 <1>   0.0800 
 40 H       -7.3370    -3.5720     0.1580 H     1 <1>   0.0800 
 41 H       -7.7520    -5.2410     0.4910 H     1 <1>   0.0800 
 42 H       -7.7570    -4.6410    -1.1530 H     1 <1>   0.0800 
 43 H       -3.1180    -8.2870    -1.6770 H     1 <1>   0.0800 
 44 H       -3.4890    -7.3350    -3.1060 H     1 <1>   0.0800 
 45 H       -4.7300    -8.2960    -2.3370 H     1 <1>   0.0800 
 46 H        1.8950    -6.8970     1.5180 H     1 <1>   0.0800 
 47 H        2.8040    -5.6430    -0.3970 H     1 <1>   0.0800 
 48 H        1.7970    -5.3600    -1.7970 H     1 <1>   0.0800 
 49 H        0.9160    -9.1170    -0.2870 H     1 <1>   0.0800 
 50 H        2.0000    -9.2990     1.0560 H     1 <1>   0.0800 
 51 H       -0.8860    -8.0430     1.1110 H     1 <1>   0.0800 
 52 H       -0.4890    -6.7190     2.1750 H     1 <1>   0.0800 
 53 H        3.4390    -7.1080    -2.2620 H     1 <1>   0.0800 
 54 H        1.8140    -7.7220    -2.3620 H     1 <1>   0.0800 
 55 H        3.1900    -9.3130    -1.1130 H     1 <1>   0.0800 
 56 H        3.7340    -8.0500    -0.0410 H     1 <1>   0.0800 
 57 H        0.3360    -9.5850     2.5550 H     1 <1>   0.0800 
 58 H       -0.7330    -8.6330     3.5380 H     1 <1>   0.0800 
 59 H        0.9700    -8.2530     3.5000 H     1 <1>   0.0800 
@<TRIPOS>BOND
  1   1   2  1   
  2   2   3  ar  
  3   2   4  ar  
  4   3   5  ar  
  5   3   6  1   
  6   4   7  ar  
  7   4  31  1   
  8   5   8  ar  
  9   5  32  1   
 10   6   9  1   
 11   6  33  1   
 12   6  34  1   
 13   7   8  ar  
 14   7  35  1   
 15   8  36  1   
 16   9  10  1   
 17   9  11  ar  
 18  10  12  1   
 19  10  13  2   
 20  11  14  ar  
 21  11  15  1   
 22  12  16  2   
 23  12  17  am  
 24  13  14  1   
 25  13  18  1   
 26  14  37  1   
 27  15  19  1   
 28  15  38  1   
 29  15  39  1   
 30  17  20  am  
 31  17  21  1   
 32  18  20  am  
 33  18  22  1   
 34  19  23  1   
 35  19  24  1   
 36  20  25  2   
 37  21  40  1   
 38  21  41  1   
 39  21  42  1   
 40  22  43  1   
 41  22  44  1   
 42  22  45  1   
 43  23  26  1   
 44  23  27  1   
 45  23  46  1   
 46  24  28  1   
 47  24  47  1   
 48  24  48  1   
 49  26  29  1   
 50  26  49  1   
 51  26  50  1   
 52  27  30  1   
 53  27  51  1   
 54  27  52  1   
 55  28  29  1   
 56  28  53  1   
 57  28  54  1   
 58  29  55  1   
 59  29  56  1   
 60  30  57  1   
 61  30  58  1   
 62  30  59  1   
@<TRIPOS>SUBSTRUCTURE
  1 ****  11 GROUP 4 **** **** 0

# MOE 2024.06 (io_trps.svl 2023.06)
