@<TRIPOS>MOLECULE
1-(4-Fluoro-benzenesulfonyl)-piperidine-3-carboxylic acid cyclohexylamide
50 52 1 0 0 
SMALL
USER_CHARGES


@<TRIPOS>ATOM
  1 S        0.1820     0.2000    -1.0290 S.o2  1 <1>   1.4470 
  2 O        0.2020     1.4830    -1.6950 O.2   1 <1>  -0.6500 
  3 O        0.3370    -1.0080    -1.8120 O.2   1 <1>  -0.6500 
  4 N        1.4480     0.2100     0.0990 N.am  1 <1>  -0.8490 
  5 C       -1.3020     0.0920     0.0130 C.ar  1 <1>  -0.0090 
  6 C        1.6470    -1.0940     0.7730 C.3   1 <1>   0.1960 
  7 C        2.6680     0.8090    -0.4680 C.3   1 <1>   0.1960 
  8 C       -1.4960     0.9830     1.0670 C.ar  1 <1>  -0.1500 
  9 C       -2.2750    -0.8790    -0.2200 C.ar  1 <1>  -0.1500 
 10 C        2.8160    -1.8840     0.1700 C.3   1 <1>  -0.0190 
 11 C        3.9140     0.4220     0.3370 C.3   1 <1>  -0.1600 
 12 C       -2.6210     0.9120     1.8710 C.ar  1 <1>  -0.1500 
 13 C       -3.4080    -0.9660     0.5730 C.ar  1 <1>  -0.1500 
 14 C        2.8870    -3.2690     0.7920 C.2   1 <1>   0.5690 
 15 C        4.1380    -1.1030     0.3420 C.3   1 <1>  -0.1600 
 16 C       -3.5590    -0.0650     1.6080 C.ar  1 <1>   0.1900 
 17 O        2.8030    -3.3810     1.9920 O.2   1 <1>  -0.5700 
 18 N        3.0390    -4.3410    -0.0260 N.am  1 <1>  -0.7300 
 19 F       -4.6220    -0.1410     2.3600 F     1 <1>  -0.1900 
 20 C        3.1190    -5.7410     0.4170 C.3   1 <1>   0.2200 
 21 C        4.4540    -6.3320    -0.0450 C.3   1 <1>  -0.1600 
 22 C        1.9340    -6.5140    -0.1710 C.3   1 <1>  -0.1600 
 23 C        4.5480    -7.8260     0.2980 C.3   1 <1>  -0.1600 
 24 C        2.0230    -8.0090     0.1720 C.3   1 <1>  -0.1600 
 25 C        3.3610    -8.6050    -0.2860 C.3   1 <1>  -0.1600 
 26 H        0.7460    -1.6850     0.7330 H     1 <1>   0.0800 
 27 H        1.8590    -0.9120     1.8140 H     1 <1>   0.0800 
 28 H        2.5580     1.8810    -0.4840 H     1 <1>   0.0800 
 29 H        2.7980     0.4770    -1.4860 H     1 <1>   0.0800 
 30 H       -0.7520     1.7400     1.2560 H     1 <1>   0.1500 
 31 H       -2.1440    -1.5750    -1.0330 H     1 <1>   0.1500 
 32 H        2.6160    -2.0070    -0.8790 H     1 <1>   0.0800 
 33 H        3.7890     0.7770     1.3450 H     1 <1>   0.0800 
 34 H        4.7780     0.9130    -0.0740 H     1 <1>   0.0800 
 35 H       -2.7700     1.5990     2.6850 H     1 <1>   0.1500 
 36 H       -4.1590    -1.7150     0.3950 H     1 <1>   0.1500 
 37 H        4.8080    -1.3800    -0.4540 H     1 <1>   0.0800 
 38 H        4.6080    -1.3750     1.2720 H     1 <1>   0.0800 
 39 H        3.0860    -4.2090    -1.0360 H     1 <1>   0.3700 
 40 H        3.0690    -5.7870     1.4940 H     1 <1>   0.0800 
 41 H        5.2600    -5.8070     0.4360 H     1 <1>   0.0800 
 42 H        4.5540    -6.2120    -1.1100 H     1 <1>   0.0800 
 43 H        1.9230    -6.4010    -1.2400 H     1 <1>   0.0800 
 44 H        1.0180    -6.1140     0.2260 H     1 <1>   0.0800 
 45 H        4.5580    -7.9440     1.3680 H     1 <1>   0.0800 
 46 H        5.4690    -8.2290    -0.0870 H     1 <1>   0.0800 
 47 H        1.2120    -8.5370    -0.3000 H     1 <1>   0.0800 
 48 H        1.9230    -8.1360     1.2370 H     1 <1>   0.0800 
 49 H        3.4200    -9.6350     0.0210 H     1 <1>   0.0800 
 50 H        3.4130    -8.5800    -1.3610 H     1 <1>   0.0800 
@<TRIPOS>BOND
  1   1   2  2   
  2   1   3  2   
  3   1   4  am  
  4   1   5  1   
  5   4   6  1   
  6   4   7  1   
  7   5   8  ar  
  8   5   9  ar  
  9   6  10  1   
 10   6  26  1   
 11   6  27  1   
 12   7  11  1   
 13   7  28  1   
 14   7  29  1   
 15   8  12  ar  
 16   8  30  1   
 17   9  13  ar  
 18   9  31  1   
 19  10  14  1   
 20  10  15  1   
 21  10  32  1   
 22  11  15  1   
 23  11  33  1   
 24  11  34  1   
 25  12  16  ar  
 26  12  35  1   
 27  13  16  ar  
 28  13  36  1   
 29  14  17  2   
 30  14  18  am  
 31  15  37  1   
 32  15  38  1   
 33  16  19  1   
 34  18  20  1   
 35  18  39  1   
 36  20  21  1   
 37  20  22  1   
 38  20  40  1   
 39  21  23  1   
 40  21  41  1   
 41  21  42  1   
 42  22  24  1   
 43  22  43  1   
 44  22  44  1   
 45  23  25  1   
 46  23  45  1   
 47  23  46  1   
 48  24  25  1   
 49  24  47  1   
 50  24  48  1   
 51  25  49  1   
 52  25  50  1   
@<TRIPOS>SUBSTRUCTURE
  1 ****   6 GROUP 4 **** **** 0

# MOE 2024.06 (io_trps.svl 2023.06)
