@<TRIPOS>MOLECULE
[4-(Azepane-1-sulfonyl)-piperazin-1-yl]-phenyl-methanone
49 51 1 0 0 
SMALL
USER_CHARGES


@<TRIPOS>ATOM
  1 S       -0.1670     0.2660    -1.6550 S.o2  1 <1>   1.5760 
  2 O       -0.4910    -0.8430    -2.5240 O.2   1 <1>  -0.6500 
  3 O        0.3810     1.4890    -2.1960 O.2   1 <1>  -0.6500 
  4 N        0.8490    -0.2670    -0.4150 N.am  1 <1>  -0.8490 
  5 N       -1.5510     0.6390    -0.7680 N.am  1 <1>  -0.8490 
  6 C        1.2600     0.8530     0.4400 C.3   1 <1>   0.1960 
  7 C        1.9790    -1.0080    -0.9790 C.3   1 <1>   0.1960 
  8 C       -2.5130     1.3840    -1.5980 C.3   1 <1>   0.1960 
  9 C       -2.1770    -0.5740    -0.2130 C.3   1 <1>   0.1960 
 10 C        1.6100     0.3510     1.8440 C.3   1 <1>  -0.1600 
 11 C        2.8480    -1.7010     0.0790 C.3   1 <1>  -0.1600 
 12 C       -3.7760     1.7700    -0.8100 C.3   1 <1>   0.1400 
 13 C       -3.4220    -0.2360     0.6230 C.3   1 <1>   0.1400 
 14 C        3.0790    -0.0540     2.0470 C.3   1 <1>  -0.1600 
 15 C        3.7570    -0.7330     0.8490 C.3   1 <1>  -0.1600 
 16 N       -4.3940     0.5640    -0.1820 N.am  1 <1>  -0.6600 
 17 C       -5.7230     0.2450    -0.3550 C.2   1 <1>   0.5440 
 18 O       -6.4700     1.0770    -0.8340 O.2   1 <1>  -0.5700 
 19 C       -6.2490    -1.0520     0.0210 C.ar  1 <1>   0.0860 
 20 C       -7.2390    -1.1710     0.9950 C.ar  1 <1>  -0.1500 
 21 C       -5.7810    -2.2230    -0.5760 C.ar  1 <1>  -0.1500 
 22 C       -7.7290    -2.4080     1.3730 C.ar  1 <1>  -0.1500 
 23 C       -6.2670    -3.4630    -0.2030 C.ar  1 <1>  -0.1500 
 24 C       -7.2410    -3.5570     0.7760 C.ar  1 <1>  -0.1500 
 25 H        0.4360     1.5380     0.5480 H     1 <1>   0.0800 
 26 H        2.0760     1.4010    -0.0020 H     1 <1>   0.0800 
 27 H        2.5830    -0.3510    -1.5850 H     1 <1>   0.0800 
 28 H        1.5950    -1.7800    -1.6260 H     1 <1>   0.0800 
 29 H       -2.7980     0.7920    -2.4510 H     1 <1>   0.0800 
 30 H       -2.0490     2.2860    -1.9620 H     1 <1>   0.0800 
 31 H       -1.4700    -1.0890     0.4140 H     1 <1>   0.0800 
 32 H       -2.4620    -1.2430    -1.0080 H     1 <1>   0.0800 
 33 H        0.9650    -0.4750     2.0860 H     1 <1>   0.0800 
 34 H        1.3880     1.1340     2.5470 H     1 <1>   0.0800 
 35 H        3.4820    -2.3940    -0.4440 H     1 <1>   0.0800 
 36 H        2.2340    -2.2780     0.7480 H     1 <1>   0.0800 
 37 H       -4.4730     2.2490    -1.4760 H     1 <1>   0.0800 
 38 H       -3.5160     2.4750    -0.0400 H     1 <1>   0.0800 
 39 H       -3.1190     0.3420     1.4790 H     1 <1>   0.0800 
 40 H       -3.8700    -1.1440     0.9840 H     1 <1>   0.0800 
 41 H        3.1260    -0.7150     2.8950 H     1 <1>   0.0800 
 42 H        3.6520     0.8220     2.3000 H     1 <1>   0.0800 
 43 H        4.1310     0.0170     0.1740 H     1 <1>   0.0800 
 44 H        4.6120    -1.2750     1.2170 H     1 <1>   0.0800 
 45 H       -7.6230    -0.2770     1.4530 H     1 <1>   0.1500 
 46 H       -5.0310    -2.1520    -1.3440 H     1 <1>   0.1500 
 47 H       -8.4920    -2.4780     2.1290 H     1 <1>   0.1500 
 48 H       -5.8920    -4.3560    -0.6750 H     1 <1>   0.1500 
 49 H       -7.6210    -4.5210     1.0680 H     1 <1>   0.1500 
@<TRIPOS>BOND
  1   1   2  2   
  2   1   3  2   
  3   1   4  am  
  4   1   5  am  
  5   4   6  1   
  6   4   7  1   
  7   5   8  1   
  8   5   9  1   
  9   6  10  1   
 10   6  25  1   
 11   6  26  1   
 12   7  11  1   
 13   7  27  1   
 14   7  28  1   
 15   8  12  1   
 16   8  29  1   
 17   8  30  1   
 18   9  13  1   
 19   9  31  1   
 20   9  32  1   
 21  10  14  1   
 22  10  33  1   
 23  10  34  1   
 24  11  15  1   
 25  11  35  1   
 26  11  36  1   
 27  12  16  1   
 28  12  37  1   
 29  12  38  1   
 30  13  16  1   
 31  13  39  1   
 32  13  40  1   
 33  14  15  1   
 34  14  41  1   
 35  14  42  1   
 36  15  43  1   
 37  15  44  1   
 38  16  17  am  
 39  17  18  2   
 40  17  19  1   
 41  19  20  ar  
 42  19  21  ar  
 43  20  22  ar  
 44  20  45  1   
 45  21  23  ar  
 46  21  46  1   
 47  22  24  ar  
 48  22  47  1   
 49  23  24  ar  
 50  23  48  1   
 51  24  49  1   
@<TRIPOS>SUBSTRUCTURE
  1 ****   9 GROUP 4 **** **** 0

# MOE 2024.06 (io_trps.svl 2023.06)
