@<TRIPOS>MOLECULE
4-[3-(4-Methoxy-phenyl)-[1,2,4]oxadiazol-5-ylmethyl]-morpholine
37 39 1 0 0 
SMALL
USER_CHARGES


@<TRIPOS>ATOM
  1 O       -0.4880    -0.2580    -0.2950 O.3   1 <1>  -0.5600 
  2 C       -1.5370     0.3640    -0.9930 C.3   1 <1>   0.1200 
  3 C       -0.7380    -1.5350     0.2390 C.3   1 <1>   0.1200 
  4 C       -2.9000     0.0510    -0.3520 C.3   1 <1>   0.1100 
  5 C       -1.9590    -2.2280    -0.3990 C.3   1 <1>   0.1100 
  6 N       -3.1890    -1.4050    -0.3190 N.3   1 <1>  -0.8100 
  7 C       -4.0570    -1.7870     0.8240 C.3   1 <1>   0.2900 
  8 C       -5.4440    -1.1470     0.7980 C.2   1 <1>   0.2980 
  9 O       -5.5610     0.1150     1.1220 O.3   1 <1>  -0.0190 
 10 N       -6.5340    -1.7340     0.5100 N.2   1 <1>  -0.5650 
 11 N       -6.8300     0.3550     1.0200 N.2   1 <1>  -0.4100 
 12 C       -7.4090    -0.7330     0.6520 C.2   1 <1>   0.4620 
 13 C       -8.8340    -0.8980     0.4130 C.ar  1 <1>   0.0540 
 14 C       -9.7320     0.1480     0.6360 C.ar  1 <1>  -0.1500 
 15 C       -9.3670    -2.1050    -0.0480 C.ar  1 <1>  -0.1500 
 16 C      -11.0880    -0.0030     0.4110 C.ar  1 <1>  -0.1500 
 17 C      -10.7210    -2.2640    -0.2760 C.ar  1 <1>  -0.1500 
 18 C      -11.5960    -1.2070    -0.0460 C.ar  1 <1>   0.0820 
 19 O      -12.9340    -1.2750    -0.2420 O.3   1 <1>  -0.3630 
 20 C      -13.5500    -2.4570    -0.7040 C.3   1 <1>   0.0400 
 21 H       -1.5180     0.0180    -2.0120 H     1 <1>   0.0800 
 22 H       -1.3520     1.4230    -0.9860 H     1 <1>   0.0800 
 23 H       -0.8940    -1.4210     1.2960 H     1 <1>   0.0800 
 24 H        0.1470    -2.1270     0.0880 H     1 <1>   0.0800 
 25 H       -3.6780     0.5480    -0.9050 H     1 <1>   0.0800 
 26 H       -2.8920     0.4550     0.6460 H     1 <1>   0.0800 
 27 H       -2.1160    -3.1890     0.0600 H     1 <1>   0.0800 
 28 H       -1.7370    -2.4090    -1.4370 H     1 <1>   0.0800 
 29 H       -3.5710    -1.5350     1.7500 H     1 <1>   0.0800 
 30 H       -4.2010    -2.8530     0.8050 H     1 <1>   0.0800 
 31 H       -9.3640     1.0940     0.9910 H     1 <1>   0.1500 
 32 H       -8.7050    -2.9330    -0.2330 H     1 <1>   0.1500 
 33 H      -11.7640     0.8140     0.5880 H     1 <1>   0.1500 
 34 H      -11.0760    -3.2130    -0.6310 H     1 <1>   0.1500 
 35 H      -14.6070    -2.2730    -0.7820 H     1 <1>   0.0800 
 36 H      -13.3670    -3.2460     0.0030 H     1 <1>   0.0800 
 37 H      -13.1500    -2.7030    -1.6720 H     1 <1>   0.0800 
@<TRIPOS>BOND
  1   1   2  1   
  2   1   3  1   
  3   2   4  1   
  4   2  21  1   
  5   2  22  1   
  6   3   5  1   
  7   3  23  1   
  8   3  24  1   
  9   4   6  1   
 10   4  25  1   
 11   4  26  1   
 12   5   6  1   
 13   5  27  1   
 14   5  28  1   
 15   6   7  1   
 16   7   8  1   
 17   7  29  1   
 18   7  30  1   
 19   8   9  1   
 20   8  10  2   
 21   9  11  1   
 22  10  12  1   
 23  11  12  2   
 24  12  13  1   
 25  13  14  ar  
 26  13  15  ar  
 27  14  16  ar  
 28  14  31  1   
 29  15  17  ar  
 30  15  32  1   
 31  16  18  ar  
 32  16  33  1   
 33  17  18  ar  
 34  17  34  1   
 35  18  19  1   
 36  19  20  1   
 37  20  35  1   
 38  20  36  1   
 39  20  37  1   
@<TRIPOS>SUBSTRUCTURE
  1 ****  10 GROUP 4 **** **** 0

# MOE 2024.06 (io_trps.svl 2023.06)
