@<TRIPOS>MOLECULE
1-(2,6-Dimethyl-phenyl)-5-oxo-pyrrolidine-3-carboxylic acid (4-methoxy-phenyl)-a
47 49 1 0 0 
SMALL
USER_CHARGES


@<TRIPOS>ATOM
  1 O        0.6230     0.0210     0.8900 O.2   1 <1>  -0.5700 
  2 C        1.7130    -0.4340     0.6510 C.2   1 <1>   0.5690 
  3 N        2.0230    -1.7370     0.4130 N.am  1 <1>  -0.4770 
  4 C        2.9350     0.4360     0.5570 C.3   1 <1>  -0.0990 
  5 C        1.1610    -2.8470     0.4350 C.ar  1 <1>   0.1170 
  6 C        3.4570    -1.9060     0.1270 C.3   1 <1>   0.1400 
  7 C        3.9560    -0.4780    -0.1400 C.3   1 <1>  -0.0190 
  8 C        0.4350    -3.1970    -0.7060 C.ar  1 <1>  -0.1440 
  9 C        1.0360    -3.6210     1.5930 C.ar  1 <1>  -0.1440 
 10 C        5.3830    -0.2420     0.3280 C.2   1 <1>   0.5690 
 11 C       -0.3790    -4.3170    -0.6890 C.ar  1 <1>  -0.1500 
 12 C        0.5110    -2.3590    -1.9760 C.3   1 <1>  -0.0970 
 13 C        0.2180    -4.7380     1.5890 C.ar  1 <1>  -0.1500 
 14 C        1.7750    -3.2570     2.8750 C.3   1 <1>  -0.0960 
 15 O        5.7250    -0.7070     1.3860 O.2   1 <1>  -0.5700 
 16 N        6.2070     0.4910    -0.4820 N.am  1 <1>  -0.5470 
 17 C       -0.4860    -5.0890     0.4520 C.ar  1 <1>  -0.1500 
 18 C        7.5480     0.8810    -0.3200 C.ar  1 <1>   0.1170 
 19 C        8.1730     0.9630     0.9210 C.ar  1 <1>  -0.1500 
 20 C        8.2830     1.2180    -1.4510 C.ar  1 <1>  -0.1500 
 21 C        9.4930     1.3640     1.0230 C.ar  1 <1>  -0.1500 
 22 C        9.6030     1.6210    -1.3550 C.ar  1 <1>  -0.1500 
 23 C       10.2180     1.6960    -0.1090 C.ar  1 <1>   0.0820 
 24 O       11.5080     2.0800     0.0810 O.3   1 <1>  -0.3620 
 25 C       12.3340     2.4130    -1.0120 C.3   1 <1>   0.0400 
 26 H        3.2500     0.6910     1.5530 H     1 <1>   0.0800 
 27 H        2.7330     1.3270    -0.0070 H     1 <1>   0.0800 
 28 H        3.6030    -2.5460    -0.7260 H     1 <1>   0.0800 
 29 H        3.9330    -2.3410     0.9890 H     1 <1>   0.0800 
 30 H        3.8960    -0.3140    -1.2000 H     1 <1>   0.0800 
 31 H       -0.9400    -4.5950    -1.5630 H     1 <1>   0.1500 
 32 H        1.5210    -2.3330    -2.3420 H     1 <1>   0.0800 
 33 H        0.1880    -1.3550    -1.7650 H     1 <1>   0.0800 
 34 H       -0.1210    -2.7620    -2.7450 H     1 <1>   0.0800 
 35 H        0.1190    -5.3420     2.4730 H     1 <1>   0.1500 
 36 H        1.6260    -2.2160     3.1030 H     1 <1>   0.0800 
 37 H        2.8270    -3.4430     2.7610 H     1 <1>   0.0800 
 38 H        1.4130    -3.8340     3.7050 H     1 <1>   0.0800 
 39 H        5.7990     0.7900    -1.3650 H     1 <1>   0.3700 
 40 H       -1.1200    -5.9580     0.4580 H     1 <1>   0.1500 
 41 H        7.6350     0.7180     1.8180 H     1 <1>   0.1500 
 42 H        7.8240     1.1630    -2.4210 H     1 <1>   0.1500 
 43 H        9.9690     1.4230     1.9850 H     1 <1>   0.1500 
 44 H       10.1350     1.8710    -2.2530 H     1 <1>   0.1500 
 45 H       13.3040     2.6730    -0.6280 H     1 <1>   0.0800 
 46 H       11.9080     3.2540    -1.5290 H     1 <1>   0.0800 
 47 H       12.4160     1.5590    -1.6610 H     1 <1>   0.0800 
@<TRIPOS>BOND
  1   1   2  2   
  2   2   3  am  
  3   2   4  1   
  4   3   5  1   
  5   3   6  1   
  6   4   7  1   
  7   4  26  1   
  8   4  27  1   
  9   5   8  ar  
 10   5   9  ar  
 11   6   7  1   
 12   6  28  1   
 13   6  29  1   
 14   7  10  1   
 15   7  30  1   
 16   8  11  ar  
 17   8  12  1   
 18   9  13  ar  
 19   9  14  1   
 20  10  15  2   
 21  10  16  am  
 22  11  17  ar  
 23  11  31  1   
 24  12  32  1   
 25  12  33  1   
 26  12  34  1   
 27  13  17  ar  
 28  13  35  1   
 29  14  36  1   
 30  14  37  1   
 31  14  38  1   
 32  16  18  1   
 33  16  39  1   
 34  17  40  1   
 35  18  19  ar  
 36  18  20  ar  
 37  19  21  ar  
 38  19  41  1   
 39  20  22  ar  
 40  20  42  1   
 41  21  23  ar  
 42  21  43  1   
 43  22  23  ar  
 44  22  44  1   
 45  23  24  1   
 46  24  25  1   
 47  25  45  1   
 48  25  46  1   
 49  25  47  1   
@<TRIPOS>SUBSTRUCTURE
  1 ****   7 GROUP 4 **** **** 0

# MOE 2024.06 (io_trps.svl 2023.06)
