@<TRIPOS>MOLECULE
4-(4-Chloro-phenyl)-3,6-dihydroxy-6-methyl-4,5,6,7-tetrahydro-1H-indazole-5-carb
40 42 1 0 0 
SMALL
USER_CHARGES


@<TRIPOS>ATOM
  1 CL      -0.5800     0.1170     1.2490 Cl    1 <1>  -0.1770 
  2 C       -2.0690     0.9130     0.8050 C.ar  1 <1>   0.1770 
  3 C       -2.9950     0.2360     0.0350 C.ar  1 <1>  -0.1500 
  4 C       -2.2990     2.2070     1.2280 C.ar  1 <1>  -0.1500 
  5 C       -4.1750     0.8700    -0.3160 C.ar  1 <1>  -0.1500 
  6 C       -3.4800     2.8350     0.8730 C.ar  1 <1>  -0.1500 
  7 C       -4.4270     2.1720     0.1000 C.ar  1 <1>  -0.1430 
  8 C       -5.7390     2.8570    -0.2880 C.3   1 <1>   0.2450 
  9 C       -5.5210     4.2800    -0.7770 C.2   1 <1>  -0.1810 
 10 C       -6.7130     2.8690     0.9140 C.3   1 <1>  -0.0190 
 11 C       -4.6150     4.8050    -1.6870 C.2   1 <1>   0.3510 
 12 C       -6.2440     5.3500    -0.3920 C.2   1 <1>  -0.3320 
 13 C       -7.1180     1.4520     1.2720 C.2   1 <1>   0.6590 
 14 C       -7.9100     3.8400     0.7160 C.3   1 <1>   0.2800 
 15 O       -3.6960     4.1310    -2.3750 O.3   1 <1>  -0.5120 
 16 N       -4.7200     6.0780    -1.8590 N.2   1 <1>  -0.7070 
 17 N       -5.7420     6.4250    -1.0420 N.pl3 1 <1>   0.3000 
 18 C       -7.4020     5.2980     0.5890 C.3   1 <1>   0.0200 
 19 O       -6.9700     1.0130     2.3840 O.2   1 <1>  -0.5700 
 20 O       -7.6030     0.6960     0.2890 O.3   1 <1>  -0.4300 
 21 O       -8.7060     3.7820     1.8390 O.3   1 <1>  -0.6800 
 22 C       -8.8300     3.4820    -0.4620 C.3   1 <1>  -0.2400 
 23 C       -7.9800    -0.6470     0.5110 C.3   1 <1>   0.0400 
 24 H       -2.7930    -0.7700    -0.2820 H     1 <1>   0.1500 
 25 H       -1.5620     2.7150     1.8240 H     1 <1>   0.1500 
 26 H       -4.8960     0.3410    -0.9160 H     1 <1>   0.1500 
 27 H       -3.6580     3.8460     1.1990 H     1 <1>   0.1500 
 28 H       -6.1810     2.3170    -1.1070 H     1 <1>   0.0800 
 29 H       -6.1600     3.2440     1.7550 H     1 <1>   0.0800 
 30 H       -3.2220     4.7980    -2.8990 H     1 <1>   0.4500 
 31 H       -6.0690     7.3960    -0.9610 H     1 <1>   0.2700 
 32 H       -8.1950     5.9430     0.2570 H     1 <1>   0.0800 
 33 H       -7.0510     5.6440     1.5460 H     1 <1>   0.0800 
 34 H       -9.5570     4.2300     1.6760 H     1 <1>   0.4000 
 35 H       -9.6220     4.2030    -0.5590 H     1 <1>   0.0800 
 36 H       -8.2800     3.4810    -1.3850 H     1 <1>   0.0800 
 37 H       -9.2700     2.5110    -0.3300 H     1 <1>   0.0800 
 38 H       -7.1200    -1.1980     0.8510 H     1 <1>   0.0800 
 39 H       -8.3440    -1.0580    -0.4140 H     1 <1>   0.0800 
 40 H       -8.7540    -0.6710     1.2590 H     1 <1>   0.0800 
@<TRIPOS>BOND
  1   1   2  1   
  2   2   3  ar  
  3   2   4  ar  
  4   3   5  ar  
  5   3  24  1   
  6   4   6  ar  
  7   4  25  1   
  8   5   7  ar  
  9   5  26  1   
 10   6   7  ar  
 11   6  27  1   
 12   7   8  1   
 13   8   9  1   
 14   8  10  1   
 15   8  28  1   
 16   9  11  1   
 17   9  12  2   
 18  10  13  1   
 19  10  14  1   
 20  10  29  1   
 21  11  15  1   
 22  11  16  2   
 23  12  17  1   
 24  12  18  1   
 25  13  19  2   
 26  13  20  1   
 27  14  18  1   
 28  14  21  1   
 29  14  22  1   
 30  15  30  1   
 31  16  17  1   
 32  17  31  1   
 33  18  32  1   
 34  18  33  1   
 35  20  23  1   
 36  21  34  1   
 37  22  35  1   
 38  22  36  1   
 39  22  37  1   
 40  23  38  1   
 41  23  39  1   
 42  23  40  1   
@<TRIPOS>SUBSTRUCTURE
  1 ****   8 GROUP 4 **** **** 0

# MOE 2024.06 (io_trps.svl 2023.06)
