@<TRIPOS>MOLECULE
8-(2-Methoxy-phenyl)-1-methyl-3-(2-methyl-allyl)-5,6,7,8-tetrahydro-1H-1,3,4b,8,
52 55 1 0 0 
SMALL
USER_CHARGES


@<TRIPOS>ATOM
  1 O        1.0480     0.2680     1.0010 O.2   1 <1>  -0.5740 
  2 C        1.9360     0.9530     0.5370 C.2   1 <1>   0.6860 
  3 N        1.6470     2.1830    -0.0400 N.am  1 <1>  -0.4250 
  4 N        3.2470     0.4930     0.5650 N.am  1 <1>  -0.4410 
  5 C        2.6140     2.9170    -0.7070 C.2   1 <1>   0.6990 
  6 C        0.3090     2.7910     0.1750 C.3   1 <1>   0.2720 
  7 C        4.2140     1.2530    -0.0630 C.2   1 <1>   0.4210 
  8 C        3.5930    -0.8010     1.2230 C.3   1 <1>   0.0520 
  9 O        2.3330     3.9400    -1.3100 O.2   1 <1>  -0.5740 
 10 C        3.9560     2.4250    -0.6830 C.2   1 <1>   0.2710 
 11 C        0.3020     3.7120     1.3970 C.2   1 <1>  -0.2830 
 12 N        5.5440     0.9900    -0.1730 N.pl3 1 <1>  -0.7040 
 13 N        5.1860     2.8840    -1.1740 N.pl3 1 <1>  -0.7670 
 14 C        1.2860     3.8610     2.2940 C.2   1 <1>  -0.3060 
 15 C       -1.0000     4.4890     1.5230 C.3   1 <1>  -0.1090 
 16 C        6.1110     1.9910    -0.8400 C.cat 1 <1>   1.0690 
 17 C        5.4520     4.1490    -1.8850 C.3   1 <1>   0.3480 
 18 N        7.4140     2.1200    -1.1640 N.pl3 1 <1>  -0.5800 
 19 C        6.9280     4.5100    -1.6910 C.3   1 <1>  -0.1670 
 20 C        8.4010     1.1760    -0.8050 C.ar  1 <1>   0.3050 
 21 C        7.8550     3.3120    -1.9440 C.3   1 <1>   0.1610 
 22 C        8.6280     0.8070     0.5310 C.ar  1 <1>   0.0750 
 23 C        9.1700     0.5870    -1.8010 C.ar  1 <1>  -0.1570 
 24 O        7.8610     1.3860     1.5010 O.3   1 <1>  -0.3680 
 25 C        9.6080    -0.1330     0.8340 C.ar  1 <1>  -0.1570 
 26 C       10.1420    -0.3460    -1.4920 C.ar  1 <1>  -0.1570 
 27 C        8.2860     1.3970     2.8500 C.3   1 <1>   0.0320 
 28 C       10.3600    -0.7040    -0.1760 C.ar  1 <1>  -0.1570 
 29 H       -0.4350     2.0230     0.3020 H     1 <1>   0.0720 
 30 H        0.0320     3.3570    -0.6990 H     1 <1>   0.0720 
 31 H        2.8440    -1.0680     1.9500 H     1 <1>   0.0720 
 32 H        4.5370    -0.7230     1.7300 H     1 <1>   0.0720 
 33 H        3.6450    -1.5810     0.4830 H     1 <1>   0.0720 
 34 H        6.0890     0.2530     0.2710 H     1 <1>   0.4450 
 35 H        1.2230     4.5270     3.1380 H     1 <1>   0.1430 
 36 H        2.2270     3.3440     2.2840 H     1 <1>   0.1430 
 37 H       -1.8310     3.8120     1.6150 H     1 <1>   0.0720 
 38 H       -1.1490     5.1100     0.6580 H     1 <1>   0.0720 
 39 H       -0.9850     5.1220     2.3930 H     1 <1>   0.0720 
 40 H        4.8250     4.9350    -1.4950 H     1 <1>   0.0720 
 41 H        5.2310     4.0210    -2.9320 H     1 <1>   0.0720 
 42 H        7.0770     4.8690    -0.6870 H     1 <1>   0.0720 
 43 H        7.1880     5.3130    -2.3560 H     1 <1>   0.0720 
 44 H        7.8520     3.0650    -2.9930 H     1 <1>   0.0720 
 45 H        8.8620     3.5750    -1.6630 H     1 <1>   0.0720 
 46 H        9.0110     0.8510    -2.8310 H     1 <1>   0.1430 
 47 H        9.8040    -0.4390     1.8460 H     1 <1>   0.1430 
 48 H       10.7330    -0.7950    -2.2750 H     1 <1>   0.1430 
 49 H        7.6290     2.0410     3.4060 H     1 <1>   0.0720 
 50 H        9.2920     1.7770     2.8990 H     1 <1>   0.0720 
 51 H        8.2350     0.3990     3.2460 H     1 <1>   0.0720 
 52 H       11.1190    -1.4310     0.0640 H     1 <1>   0.1430 
@<TRIPOS>BOND
  1   1   2  2   
  2   2   3  am  
  3   2   4  am  
  4   3   5  am  
  5   3   6  1   
  6   4   7  1   
  7   4   8  1   
  8   5   9  2   
  9   5  10  1   
 10   6  11  1   
 11   6  29  1   
 12   6  30  1   
 13   7  10  2   
 14   7  12  1   
 15   8  31  1   
 16   8  32  1   
 17   8  33  1   
 18  10  13  1   
 19  11  14  2   
 20  11  15  1   
 21  12  16  ar  
 22  12  34  1   
 23  13  16  ar  
 24  13  17  1   
 25  14  35  1   
 26  14  36  1   
 27  15  37  1   
 28  15  38  1   
 29  15  39  1   
 30  16  18  ar  
 31  17  19  1   
 32  17  40  1   
 33  17  41  1   
 34  18  20  1   
 35  18  21  1   
 36  19  21  1   
 37  19  42  1   
 38  19  43  1   
 39  20  22  ar  
 40  20  23  ar  
 41  21  44  1   
 42  21  45  1   
 43  22  24  1   
 44  22  25  ar  
 45  23  26  ar  
 46  23  46  1   
 47  24  27  1   
 48  25  28  ar  
 49  25  47  1   
 50  26  28  ar  
 51  26  48  1   
 52  27  49  1   
 53  27  50  1   
 54  27  51  1   
 55  28  52  1   
@<TRIPOS>SUBSTRUCTURE
  1 ****  12 GROUP 4 **** **** 0

# MOE 2024.06 (io_trps.svl 2023.06)
