@<TRIPOS>MOLECULE
8-Diethylamino-7-(2-hydroxy-3-p-tolyloxy-propyl)-3-methyl-3,7-dihydro-purine-2,6
57 59 1 0 0 
SMALL
USER_CHARGES


@<TRIPOS>ATOM
  1 O        0.7390    -0.3680     1.0080 O.2   1 <1>  -0.5740 
  2 C        1.6870     0.3720     0.8830 C.2   1 <1>   0.6870 
  3 N        2.7850     0.0440     0.1010 N.am  1 <1>  -0.4410 
  4 N        1.6670     1.5680     1.5390 N.am  1 <1>  -0.4940 
  5 C        3.8130     0.9720     0.0160 C.2   1 <1>   0.4210 
  6 C        2.8480    -1.2520    -0.6360 C.3   1 <1>   0.0530 
  7 C        2.6770     2.4850     1.4730 C.2   1 <1>   0.7000 
  8 N        4.9640     0.8770    -0.6950 N.pl3 1 <1>  -0.7030 
  9 C        3.8080     2.1610     0.6550 C.2   1 <1>   0.2710 
 10 O        2.5790     3.5180     2.1090 O.2   1 <1>  -0.5740 
 11 C        5.6720     2.0000    -0.5380 C.cat 1 <1>   1.0690 
 12 N        5.0110     2.8070     0.3150 N.pl3 1 <1>  -0.7670 
 13 N        6.8640     2.1710    -1.1650 N.pl3 1 <1>  -0.5960 
 14 C        5.3330     4.1630     0.8590 C.3   1 <1>   0.3490 
 15 C        7.4160     3.4790    -1.6250 C.3   1 <1>   0.1610 
 16 C        7.6940     1.0080    -1.6010 C.3   1 <1>   0.1610 
 17 C        4.5750     5.2870     0.1140 C.3   1 <1>   0.1940 
 18 C        7.1210     3.6710    -3.1120 C.3   1 <1>  -0.2460 
 19 C        8.3240     0.3420    -0.3800 C.3   1 <1>  -0.2460 
 20 O        4.6100     5.0700    -1.2620 O.3   1 <1>  -0.6830 
 21 C        5.1550     6.6760     0.4110 C.3   1 <1>   0.1130 
 22 O        4.5880     7.6110    -0.4840 O.3   1 <1>  -0.3680 
 23 C        4.9960     8.9050    -0.4950 C.ar  1 <1>   0.0760 
 24 C        4.4630     9.7200    -1.4800 C.ar  1 <1>  -0.1560 
 25 C        5.9060     9.4380     0.4130 C.ar  1 <1>  -0.1560 
 26 C        4.8340    11.0500    -1.5660 C.ar  1 <1>  -0.1560 
 27 C        6.2750    10.7690     0.3230 C.ar  1 <1>  -0.1560 
 28 C        5.7440    11.5810    -0.6660 C.ar  1 <1>  -0.1500 
 29 C        6.1510    13.0400    -0.7600 C.3   1 <1>  -0.1030 
 30 H        0.8490     1.7760     2.1070 H     1 <1>   0.3650 
 31 H        2.0370    -1.8980    -0.3450 H     1 <1>   0.0730 
 32 H        3.7730    -1.7560    -0.4170 H     1 <1>   0.0730 
 33 H        2.7770    -1.0730    -1.6950 H     1 <1>   0.0730 
 34 H        5.2410     0.1180    -1.3080 H     1 <1>   0.4450 
 35 H        6.3920     4.3350     0.8220 H     1 <1>   0.0730 
 36 H        5.0620     4.2010     1.9010 H     1 <1>   0.0730 
 37 H        8.4800     3.5030    -1.4560 H     1 <1>   0.0730 
 38 H        6.9900     4.3030    -1.0960 H     1 <1>   0.0730 
 39 H        8.4820     1.3360    -2.2590 H     1 <1>   0.0730 
 40 H        7.0950     0.3010    -2.1480 H     1 <1>   0.0730 
 41 H        3.5410     5.2790     0.4130 H     1 <1>   0.0730 
 42 H        7.5990     2.9180    -3.7110 H     1 <1>   0.0730 
 43 H        7.4930     4.6300    -3.4270 H     1 <1>   0.0730 
 44 H        6.0600     3.6540    -3.2910 H     1 <1>   0.0730 
 45 H        8.9400     1.0440     0.1540 H     1 <1>   0.0730 
 46 H        8.9520    -0.4710    -0.7010 H     1 <1>   0.0730 
 47 H        7.5770    -0.0560     0.2820 H     1 <1>   0.0730 
 48 H        4.3310     5.9060    -1.7030 H     1 <1>   0.3950 
 49 H        6.2210     6.6800     0.2680 H     1 <1>   0.0730 
 50 H        4.9180     6.9790     1.4160 H     1 <1>   0.0730 
 51 H        3.7560     9.3110    -2.1780 H     1 <1>   0.1440 
 52 H        6.3370     8.8440     1.1950 H     1 <1>   0.1440 
 53 H        4.4100    11.6710    -2.3360 H     1 <1>   0.1440 
 54 H        6.9780    11.1740     1.0290 H     1 <1>   0.1440 
 55 H        6.1000    13.3790    -1.7790 H     1 <1>   0.0730 
 56 H        7.1580    13.1730    -0.4080 H     1 <1>   0.0730 
 57 H        5.4900    13.6400    -0.1600 H     1 <1>   0.0730 
@<TRIPOS>BOND
  1   1   2  2   
  2   2   3  am  
  3   2   4  am  
  4   3   5  1   
  5   3   6  1   
  6   4   7  am  
  7   4  30  1   
  8   5   8  1   
  9   5   9  2   
 10   6  31  1   
 11   6  32  1   
 12   6  33  1   
 13   7   9  1   
 14   7  10  2   
 15   8  11  ar  
 16   8  34  1   
 17   9  12  1   
 18  11  12  ar  
 19  11  13  ar  
 20  12  14  1   
 21  13  15  1   
 22  13  16  1   
 23  14  17  1   
 24  14  35  1   
 25  14  36  1   
 26  15  18  1   
 27  15  37  1   
 28  15  38  1   
 29  16  19  1   
 30  16  39  1   
 31  16  40  1   
 32  17  20  1   
 33  17  21  1   
 34  17  41  1   
 35  18  42  1   
 36  18  43  1   
 37  18  44  1   
 38  19  45  1   
 39  19  46  1   
 40  19  47  1   
 41  20  48  1   
 42  21  22  1   
 43  21  49  1   
 44  21  50  1   
 45  22  23  1   
 46  23  24  ar  
 47  23  25  ar  
 48  24  26  ar  
 49  24  51  1   
 50  25  27  ar  
 51  25  52  1   
 52  26  28  ar  
 53  26  53  1   
 54  27  28  ar  
 55  27  54  1   
 56  28  29  1   
 57  29  55  1   
 58  29  56  1   
 59  29  57  1   
@<TRIPOS>SUBSTRUCTURE
  1 ****  17 GROUP 4 **** **** 0

# MOE 2024.06 (io_trps.svl 2023.06)
