@<TRIPOS>MOLECULE
N-(1-Methyl-butyl)-4-morpholin-4-ylmethyl-benzamide
48 49 1 0 0 
SMALL
USER_CHARGES


@<TRIPOS>ATOM
  1 O        0.1160     0.8100     1.2720 O.2   1 <1>  -0.5700 
  2 C       -0.0750     1.7310     0.5030 C.2   1 <1>   0.5440 
  3 N        0.9040     2.0630    -0.3910 N.am  1 <1>  -0.7300 
  4 C       -1.3230     2.4720     0.5440 C.ar  1 <1>   0.0860 
  5 C        2.1940     1.3730    -0.5420 C.3   1 <1>   0.2200 
  6 C       -1.8860     3.0450    -0.5980 C.ar  1 <1>  -0.1500 
  7 C       -2.0170     2.6320     1.7420 C.ar  1 <1>  -0.1500 
  8 C        3.2950     2.2930     0.0010 C.3   1 <1>  -0.1600 
  9 C        2.3630     1.0440    -2.0240 C.3   1 <1>  -0.2400 
 10 C       -3.0800     3.7420    -0.5450 C.ar  1 <1>  -0.1500 
 11 C       -3.2100     3.3280     1.8050 C.ar  1 <1>  -0.1500 
 12 C        4.6830     1.6320     0.0200 C.3   1 <1>  -0.1600 
 13 C       -3.7560     3.8830     0.6580 C.ar  1 <1>  -0.1430 
 14 C        5.7210     2.5520     0.6680 C.3   1 <1>  -0.2400 
 15 C       -5.0790     4.6230     0.7230 C.3   1 <1>   0.4860 
 16 N       -6.1380     3.7690     0.1220 N.4   1 <1>  -0.9590 
 17 C       -7.4710     4.4500     0.0120 C.3   1 <1>   0.3430 
 18 C       -6.2770     2.4210     0.7750 C.3   1 <1>   0.3430 
 19 C       -8.5540     3.4960    -0.5450 C.3   1 <1>   0.1200 
 20 C       -7.3510     1.5640     0.0650 C.3   1 <1>   0.1200 
 21 O       -7.9890     2.2830    -0.9590 O.3   1 <1>  -0.5600 
 22 H        0.8100     2.9110    -0.9470 H     1 <1>   0.3700 
 23 H        2.1820     0.4560     0.0270 H     1 <1>   0.0800 
 24 H       -1.3820     2.9330    -1.5430 H     1 <1>   0.1500 
 25 H       -1.6010     2.1980     2.6380 H     1 <1>   0.1500 
 26 H        3.0360     2.5620     1.0110 H     1 <1>   0.0800 
 27 H        3.3390     3.1930    -0.5870 H     1 <1>   0.0800 
 28 H        2.4440     1.9410    -2.6090 H     1 <1>   0.0800 
 29 H        1.5230     0.4660    -2.3670 H     1 <1>   0.0800 
 30 H        3.2480     0.4540    -2.1740 H     1 <1>   0.0800 
 31 H       -3.4710     4.1700    -1.4540 H     1 <1>   0.1500 
 32 H       -3.7010     3.4260     2.7590 H     1 <1>   0.1500 
 33 H        5.0000     1.4040    -0.9830 H     1 <1>   0.0800 
 34 H        4.6340     0.7090     0.5740 H     1 <1>   0.0800 
 35 H        5.8000     3.4750     0.1220 H     1 <1>   0.0800 
 36 H        6.6840     2.0740     0.6730 H     1 <1>   0.0800 
 37 H        5.4450     2.7730     1.6850 H     1 <1>   0.0800 
 38 H       -4.9970     5.5500     0.1790 H     1 <1>   0.0800 
 39 H       -5.3210     4.8490     1.7480 H     1 <1>   0.0800 
 40 H       -5.8590     3.5480    -0.8450 H     1 <1>   0.4500 
 41 H       -7.3930     5.3050    -0.6400 H     1 <1>   0.0800 
 42 H       -7.7880     4.8070     0.9780 H     1 <1>   0.0800 
 43 H       -6.5490     2.5390     1.8100 H     1 <1>   0.0800 
 44 H       -5.3360     1.8940     0.7450 H     1 <1>   0.0800 
 45 H       -9.0410     3.9420    -1.3960 H     1 <1>   0.0800 
 46 H       -9.3040     3.2910     0.2000 H     1 <1>   0.0800 
 47 H       -8.0950     1.2270     0.7660 H     1 <1>   0.0800 
 48 H       -6.8950     0.6970    -0.3820 H     1 <1>   0.0800 
@<TRIPOS>BOND
  1   1   2  2   
  2   2   3  am  
  3   2   4  1   
  4   3   5  1   
  5   3  22  1   
  6   4   6  ar  
  7   4   7  ar  
  8   5   8  1   
  9   5   9  1   
 10   5  23  1   
 11   6  10  ar  
 12   6  24  1   
 13   7  11  ar  
 14   7  25  1   
 15   8  12  1   
 16   8  26  1   
 17   8  27  1   
 18   9  28  1   
 19   9  29  1   
 20   9  30  1   
 21  10  13  ar  
 22  10  31  1   
 23  11  13  ar  
 24  11  32  1   
 25  12  14  1   
 26  12  33  1   
 27  12  34  1   
 28  13  15  1   
 29  14  35  1   
 30  14  36  1   
 31  14  37  1   
 32  15  16  1   
 33  15  38  1   
 34  15  39  1   
 35  16  17  1   
 36  16  18  1   
 37  16  40  1   
 38  17  19  1   
 39  17  41  1   
 40  17  42  1   
 41  18  20  1   
 42  18  43  1   
 43  18  44  1   
 44  19  21  1   
 45  19  45  1   
 46  19  46  1   
 47  20  21  1   
 48  20  47  1   
 49  20  48  1   
@<TRIPOS>SUBSTRUCTURE
  1 ****   6 GROUP 4 **** **** 0

# MOE 2024.06 (io_trps.svl 2023.06)
