@<TRIPOS>MOLECULE
NONAME
35 37 1 0 0 
SMALL
USER_CHARGES


@<TRIPOS>ATOM
  1 O       -0.8660    -1.7040     2.2380 O.2   1 <1>  -0.5700 
  2 C       -1.0260    -1.9240     1.0660 C.2   1 <1>   0.4230 
  3 C       -0.1620    -2.7200     0.2400 C.ar  1 <1>   0.0860 
  4 C       -2.2600    -1.3620     0.4050 C.3   1 <1>  -0.0990 
  5 C       -0.6310    -3.1590    -1.0040 C.ar  1 <1>   0.0830 
  6 C        1.1310    -3.0770     0.6190 C.ar  1 <1>  -0.1500 
  7 C       -2.8820    -2.4300    -0.5120 C.3   1 <1>   0.2800 
  8 O       -1.8920    -2.8830    -1.4150 O.3   1 <1>  -0.3630 
  9 C        0.1820    -3.9000    -1.8450 C.ar  1 <1>  -0.1500 
 10 C        1.9370    -3.8260    -0.2180 C.ar  1 <1>  -0.1500 
 11 C       -3.4050    -3.6600     0.2530 C.3   1 <1>  -0.1600 
 12 C       -4.0160    -1.8450    -1.3640 C.3   1 <1>  -0.1600 
 13 C        1.4650    -4.2350    -1.4540 C.ar  1 <1>  -0.1500 
 14 C       -4.6380    -3.3230     1.0860 C.3   1 <1>   0.3430 
 15 C       -5.2510    -1.5300    -0.5210 C.3   1 <1>   0.3430 
 16 N       -5.7000    -2.7550     0.2030 N.4   1 <1>  -0.9590 
 17 C       -6.9440    -2.4810     0.9880 C.3   1 <1>   0.2630 
 18 H       -1.9730    -0.5010    -0.1710 H     1 <1>   0.0800 
 19 H       -2.9510    -1.0380     1.1600 H     1 <1>   0.0800 
 20 H        1.5020    -2.7580     1.5790 H     1 <1>   0.1500 
 21 H       -0.1930    -4.2170    -2.8030 H     1 <1>   0.1500 
 22 H        2.9350    -4.0910     0.0890 H     1 <1>   0.1500 
 23 H       -2.6480    -4.0510     0.9100 H     1 <1>   0.0800 
 24 H       -3.6580    -4.4390    -0.4440 H     1 <1>   0.0800 
 25 H       -4.2890    -2.5440    -2.1350 H     1 <1>   0.0800 
 26 H       -3.6800    -0.9440    -1.8460 H     1 <1>   0.0800 
 27 H        2.0960    -4.8140    -2.1070 H     1 <1>   0.1500 
 28 H       -4.3750    -2.6110     1.8520 H     1 <1>   0.0800 
 29 H       -4.9980    -4.2180     1.5690 H     1 <1>   0.0800 
 30 H       -6.0390    -1.1720    -1.1650 H     1 <1>   0.0800 
 31 H       -5.0170    -0.7510     0.1870 H     1 <1>   0.0800 
 32 H       -5.9230    -3.4690    -0.5070 H     1 <1>   0.4500 
 33 H       -6.7540    -1.7380     1.7470 H     1 <1>   0.0800 
 34 H       -7.2910    -3.3820     1.4680 H     1 <1>   0.0800 
 35 H       -7.7250    -2.1180     0.3390 H     1 <1>   0.0800 
@<TRIPOS>BOND
  1   1   2  2   
  2   2   3  1   
  3   2   4  1   
  4   3   5  ar  
  5   3   6  ar  
  6   4   7  1   
  7   4  18  1   
  8   4  19  1   
  9   5   8  1   
 10   5   9  ar  
 11   6  10  ar  
 12   6  20  1   
 13   7   8  1   
 14   7  11  1   
 15   7  12  1   
 16   9  13  ar  
 17   9  21  1   
 18  10  13  ar  
 19  10  22  1   
 20  11  14  1   
 21  11  23  1   
 22  11  24  1   
 23  12  15  1   
 24  12  25  1   
 25  12  26  1   
 26  13  27  1   
 27  14  16  1   
 28  14  28  1   
 29  14  29  1   
 30  15  16  1   
 31  15  30  1   
 32  15  31  1   
 33  16  17  1   
 34  16  32  1   
 35  17  33  1   
 36  17  34  1   
 37  17  35  1   
@<TRIPOS>SUBSTRUCTURE
  1 ****   7 GROUP 4 **** **** 0

# MOE 2024.06 (io_trps.svl 2023.06)
