@<TRIPOS>MOLECULE
1-(2,3,5,6-Tetramethyl-benzenesulfonyl)-pyrrolidine-2-carboxylic acid
41 42 1 0 0 
SMALL
USER_CHARGES


@<TRIPOS>ATOM
  1 S        0.1280    -0.3040    -0.9300 S.o2  1 <1>   1.4470 
  2 O       -0.3090    -1.0980    -2.0560 O.2   1 <1>  -0.6500 
  3 O        1.2830     0.5490    -1.1460 O.2   1 <1>  -0.6500 
  4 N        0.5900    -1.3170     0.3500 N.am  1 <1>  -0.8490 
  5 C       -1.3170     0.6370    -0.2630 C.ar  1 <1>  -0.0090 
  6 C        1.3190    -2.5590    -0.0460 C.3   1 <1>   0.1700 
  7 C        1.3500    -0.6760     1.4020 C.3   1 <1>   0.1960 
  8 C       -2.3530    -0.0310     0.4150 C.ar  1 <1>  -0.1440 
  9 C       -1.4230     2.0330    -0.4070 C.ar  1 <1>  -0.1440 
 10 C        0.5090    -3.7940    -0.5400 C.2   1 <1>   0.9060 
 11 C        2.1650    -2.9200     1.1880 C.3   1 <1>  -0.1600 
 12 C        1.8860    -1.8330     2.2220 C.3   1 <1>  -0.1600 
 13 C       -3.3720     0.6820     1.0420 C.ar  1 <1>  -0.1440 
 14 C       -2.4010    -1.5650     0.4740 C.3   1 <1>  -0.0970 
 15 C       -2.4460     2.7400     0.2220 C.ar  1 <1>  -0.1440 
 16 C       -0.4280     2.8100    -1.2750 C.3   1 <1>  -0.0960 
 17 O       -0.5360    -4.1390     0.0370 O.co2 1 <1>  -0.9000 
 18 O        0.9970    -4.4850    -1.4470 O.co2 1 <1>  -0.9000 
 19 C       -3.4000     2.0560     0.9460 C.ar  1 <1>  -0.1500 
 20 C       -4.4770     0.0090     1.8490 C.3   1 <1>  -0.0970 
 21 C       -2.5770     4.2590     0.1620 C.3   1 <1>  -0.0970 
 22 H        1.9930    -2.3090    -0.8460 H     1 <1>   0.0800 
 23 H        0.7240    -0.0210     1.9850 H     1 <1>   0.0800 
 24 H        2.1770    -0.1230     0.9880 H     1 <1>   0.0800 
 25 H        3.2030    -2.9370     0.9080 H     1 <1>   0.0800 
 26 H        1.8960    -3.8900     1.5690 H     1 <1>   0.0800 
 27 H        1.1140    -2.1660     2.8950 H     1 <1>   0.0800 
 28 H        2.7600    -1.5610     2.7840 H     1 <1>   0.0800 
 29 H       -1.8280    -1.9300     1.3070 H     1 <1>   0.0800 
 30 H       -2.0120    -2.0100    -0.4220 H     1 <1>   0.0800 
 31 H       -3.4000    -1.9420     0.5620 H     1 <1>   0.0800 
 32 H        0.4850     2.9760    -0.7310 H     1 <1>   0.0800 
 33 H       -0.8060     3.7600    -1.5970 H     1 <1>   0.0800 
 34 H       -0.2100     2.2650    -2.1750 H     1 <1>   0.0800 
 35 H       -4.1870     2.6020     1.4350 H     1 <1>   0.1500 
 36 H       -5.1570    -0.4960     1.1860 H     1 <1>   0.0800 
 37 H       -5.0340     0.7280     2.4210 H     1 <1>   0.0800 
 38 H       -4.0560    -0.7040     2.5340 H     1 <1>   0.0800 
 39 H       -2.8780     4.5630    -0.8240 H     1 <1>   0.0800 
 40 H       -1.6390     4.7240     0.4080 H     1 <1>   0.0800 
 41 H       -3.3110     4.6140     0.8620 H     1 <1>   0.0800 
@<TRIPOS>BOND
  1   1   2  2   
  2   1   3  2   
  3   1   4  am  
  4   1   5  1   
  5   4   6  1   
  6   4   7  1   
  7   5   8  ar  
  8   5   9  ar  
  9   6  10  1   
 10   6  11  1   
 11   6  22  1   
 12   7  12  1   
 13   7  23  1   
 14   7  24  1   
 15   8  13  ar  
 16   8  14  1   
 17   9  15  ar  
 18   9  16  1   
 19  10  17  ar  
 20  10  18  ar  
 21  11  12  1   
 22  11  25  1   
 23  11  26  1   
 24  12  27  1   
 25  12  28  1   
 26  13  19  ar  
 27  13  20  1   
 28  14  29  1   
 29  14  30  1   
 30  14  31  1   
 31  15  19  ar  
 32  15  21  1   
 33  16  32  1   
 34  16  33  1   
 35  16  34  1   
 36  19  35  1   
 37  20  36  1   
 38  20  37  1   
 39  20  38  1   
 40  21  39  1   
 41  21  40  1   
 42  21  41  1   
@<TRIPOS>SUBSTRUCTURE
  1 ****   5 GROUP 4 **** **** 0

# MOE 2024.06 (io_trps.svl 2023.06)
