@<TRIPOS>MOLECULE
7-(3-Hydroxy-propyl)-1,3-dimethyl-8-(3-methyl-piperidin-1-ylmethyl)-3,7-dihydro-
53 55 1 0 0 
SMALL
USER_CHARGES


@<TRIPOS>ATOM
  1 O        0.4860     0.1960     0.9120 O.2   1 <1>  -0.5700 
  2 C        1.4720     0.8340     0.6040 C.2   1 <1>   0.6900 
  3 N        1.3320     2.0820     0.0050 N.am  1 <1>  -0.4200 
  4 N        2.7340     0.3130     0.8430 N.am  1 <1>  -0.4360 
  5 C        2.4400     2.8070    -0.4140 C.2   1 <1>   0.7030 
  6 C       -0.0460     2.6220    -0.2210 C.3   1 <1>   0.0600 
  7 C        3.8290     1.0450     0.4260 C.2   1 <1>   0.4260 
  8 C        2.9080    -1.0150     1.5050 C.3   1 <1>   0.0600 
  9 O        2.3050     3.8890    -0.9620 O.2   1 <1>  -0.5700 
 10 C        3.7430     2.2500    -0.1860 C.2   1 <1>   0.2770 
 11 N        5.1400     0.7240     0.5360 N.pl3 1 <1>  -0.7000 
 12 N        5.0560     2.6620    -0.4510 N.pl3 1 <1>  -0.7640 
 13 C        5.8600     1.7050     0.0080 C.cat 1 <1>   0.6560 
 14 C        5.4010     3.9480    -1.1120 C.3   1 <1>   0.3540 
 15 C        7.3960     1.6530    -0.0130 C.3   1 <1>   0.2540 
 16 C        5.4000     5.0670    -0.0720 C.3   1 <1>  -0.1600 
 17 N        7.8960     0.2810     0.2670 N.3   1 <1>  -0.8100 
 18 C        5.7350     6.4080    -0.7200 C.3   1 <1>   0.1200 
 19 C        7.8730    -0.5650    -0.9460 C.3   1 <1>   0.1100 
 20 C        9.2470     0.3070     0.8530 C.3   1 <1>   0.1100 
 21 O        5.8830     7.3370     0.2860 O.3   1 <1>  -0.6800 
 22 C        8.2300    -2.0170    -0.5930 C.3   1 <1>  -0.0800 
 23 C        9.6560    -1.1070     1.2740 C.3   1 <1>  -0.1600 
 24 C        9.6030    -2.0810     0.0910 C.3   1 <1>  -0.1600 
 25 C        8.2170    -2.9010    -1.8460 C.3   1 <1>  -0.2400 
 26 H       -0.6800     2.3850     0.6170 H     1 <1>   0.0800 
 27 H       -0.4650     2.1790    -1.1080 H     1 <1>   0.0800 
 28 H       -0.0300     3.6920    -0.3380 H     1 <1>   0.0800 
 29 H        2.0250    -1.2820     2.0600 H     1 <1>   0.0800 
 30 H        3.7370    -0.9860     2.1900 H     1 <1>   0.0800 
 31 H        3.0860    -1.7710     0.7590 H     1 <1>   0.0800 
 32 H        5.5930    -0.1080     0.9300 H     1 <1>   0.4500 
 33 H        4.6840     4.1630    -1.8880 H     1 <1>   0.0800 
 34 H        6.3730     3.8780    -1.5710 H     1 <1>   0.0800 
 35 H        7.7480     2.3260     0.7500 H     1 <1>   0.0800 
 36 H        7.7690     1.9970    -0.9620 H     1 <1>   0.0800 
 37 H        6.1370     4.8500     0.6810 H     1 <1>   0.0800 
 38 H        4.4280     5.1340     0.3850 H     1 <1>   0.0800 
 39 H        4.9550     6.7430    -1.3850 H     1 <1>   0.0800 
 40 H        6.6690     6.3610    -1.2550 H     1 <1>   0.0800 
 41 H        8.5780    -0.1880    -1.6700 H     1 <1>   0.0800 
 42 H        6.8920    -0.5480    -1.3910 H     1 <1>   0.0800 
 43 H        9.2590     0.9430     1.7220 H     1 <1>   0.0800 
 44 H        9.9560     0.6930     0.1370 H     1 <1>   0.0800 
 45 H        5.0210     7.5760     0.6830 H     1 <1>   0.4000 
 46 H        7.4850    -2.3900     0.0890 H     1 <1>   0.0800 
 47 H        8.9960    -1.4440     2.0540 H     1 <1>   0.0800 
 48 H       10.6530    -1.0850     1.6770 H     1 <1>   0.0800 
 49 H       10.3720    -1.8190    -0.6150 H     1 <1>   0.0800 
 50 H        9.7970    -3.0820     0.4370 H     1 <1>   0.0800 
 51 H        8.9480    -2.5630    -2.5600 H     1 <1>   0.0800 
 52 H        7.2470    -2.8830    -2.3110 H     1 <1>   0.0800 
 53 H        8.4450    -3.9200    -1.5830 H     1 <1>   0.0800 
@<TRIPOS>BOND
  1   1   2  2   
  2   2   3  am  
  3   2   4  am  
  4   3   5  am  
  5   3   6  1   
  6   4   7  1   
  7   4   8  1   
  8   5   9  2   
  9   5  10  1   
 10   6  26  1   
 11   6  27  1   
 12   6  28  1   
 13   7  10  2   
 14   7  11  1   
 15   8  29  1   
 16   8  30  1   
 17   8  31  1   
 18  10  12  1   
 19  11  13  ar  
 20  11  32  1   
 21  12  13  ar  
 22  12  14  1   
 23  13  15  1   
 24  14  16  1   
 25  14  33  1   
 26  14  34  1   
 27  15  17  1   
 28  15  35  1   
 29  15  36  1   
 30  16  18  1   
 31  16  37  1   
 32  16  38  1   
 33  17  19  1   
 34  17  20  1   
 35  18  21  1   
 36  18  39  1   
 37  18  40  1   
 38  19  22  1   
 39  19  41  1   
 40  19  42  1   
 41  20  23  1   
 42  20  43  1   
 43  20  44  1   
 44  21  45  1   
 45  22  24  1   
 46  22  25  1   
 47  22  46  1   
 48  23  24  1   
 49  23  47  1   
 50  23  48  1   
 51  24  49  1   
 52  24  50  1   
 53  25  51  1   
 54  25  52  1   
 55  25  53  1   
@<TRIPOS>SUBSTRUCTURE
  1 ****  13 GROUP 4 **** **** 0

# MOE 2024.06 (io_trps.svl 2023.06)
