@<TRIPOS>MOLECULE
N-Cyclohexyl-2-(4,5-dihydro-thiazol-2-ylsulfanyl)-acetamide
34 35 1 0 0 
SMALL
USER_CHARGES


@<TRIPOS>ATOM
  1 S        0.3950     0.6130    -1.1550 S.3   1 <1>  -0.3710 
  2 C        1.0550     0.4450     0.4660 C.2   1 <1>   0.7320 
  3 C       -0.9000     1.7720    -0.5860 C.3   1 <1>   0.0700 
  4 S        2.4630    -0.6410     0.6420 S.3   1 <1>  -0.3710 
  5 N        0.4910     1.0970     1.3770 N.2   1 <1>  -0.6960 
  6 C       -0.6550     1.9140     0.9340 C.3   1 <1>   0.0860 
  7 C        2.8070    -1.2950    -1.0710 C.3   1 <1>   0.1310 
  8 C        3.9940    -2.2470    -1.0930 C.2   1 <1>   0.5690 
  9 O        4.3040    -2.7300    -2.1540 O.2   1 <1>  -0.5700 
 10 N        4.6550    -2.5190     0.0670 N.am  1 <1>  -0.7300 
 11 C        5.8200    -3.4000     0.2870 C.3   1 <1>   0.2200 
 12 C        7.0410    -2.9000    -0.4950 C.3   1 <1>  -0.1600 
 13 C        5.4800    -4.8550    -0.0620 C.3   1 <1>  -0.1600 
 14 C        8.2530    -3.8170    -0.2660 C.3   1 <1>  -0.1600 
 15 C        6.6910    -5.7720     0.1670 C.3   1 <1>  -0.1600 
 16 C        7.9170    -5.2740    -0.6130 C.3   1 <1>  -0.1600 
 17 H       -1.8590     1.3390    -0.8050 H     1 <1>   0.0800 
 18 H       -0.7700     2.7040    -1.1080 H     1 <1>   0.0800 
 19 H       -1.5340     1.6030     1.4720 H     1 <1>   0.0800 
 20 H       -0.4620     2.9450     1.1750 H     1 <1>   0.0800 
 21 H        3.0070    -0.4520    -1.7060 H     1 <1>   0.0800 
 22 H        1.9240    -1.8070    -1.4060 H     1 <1>   0.0800 
 23 H        4.3090    -2.0550     0.9110 H     1 <1>   0.3700 
 24 H        6.0640    -3.3620     1.3360 H     1 <1>   0.0800 
 25 H        7.2830    -1.9000    -0.1850 H     1 <1>   0.0800 
 26 H        6.8150    -2.8850    -1.5470 H     1 <1>   0.0800 
 27 H        5.1900    -4.9200    -1.0960 H     1 <1>   0.0800 
 28 H        4.6570    -5.1880     0.5450 H     1 <1>   0.0800 
 29 H        8.5590    -3.7570     0.7640 H     1 <1>   0.0800 
 30 H        9.0750    -3.4830    -0.8760 H     1 <1>   0.0800 
 31 H        6.4480    -6.7730    -0.1460 H     1 <1>   0.0800 
 32 H        6.9250    -5.8030     1.2180 H     1 <1>   0.0800 
 33 H        8.7630    -5.9020    -0.3940 H     1 <1>   0.0800 
 34 H        7.7170    -5.3490    -1.6690 H     1 <1>   0.0800 
@<TRIPOS>BOND
  1   1   2  1   
  2   1   3  1   
  3   2   4  1   
  4   2   5  2   
  5   3   6  1   
  6   3  17  1   
  7   3  18  1   
  8   4   7  1   
  9   5   6  1   
 10   6  19  1   
 11   6  20  1   
 12   7   8  1   
 13   7  21  1   
 14   7  22  1   
 15   8   9  2   
 16   8  10  am  
 17  10  11  1   
 18  10  23  1   
 19  11  12  1   
 20  11  13  1   
 21  11  24  1   
 22  12  14  1   
 23  12  25  1   
 24  12  26  1   
 25  13  15  1   
 26  13  27  1   
 27  13  28  1   
 28  14  16  1   
 29  14  29  1   
 30  14  30  1   
 31  15  16  1   
 32  15  31  1   
 33  15  32  1   
 34  16  33  1   
 35  16  34  1   
@<TRIPOS>SUBSTRUCTURE
  1 ****   8 GROUP 4 **** **** 0

# MOE 2024.06 (io_trps.svl 2023.06)
