@<TRIPOS>MOLECULE
1-(2,5-Dichloro-benzoyl)-piperidine-4-carboxylic acid cyclopentylamide
46 48 1 0 0 
SMALL
USER_CHARGES


@<TRIPOS>ATOM
  1 CL       1.6260     2.2480     0.1890 Cl    1 <1>  -0.1770 
  2 C        1.2760     0.5850     0.5910 C.ar  1 <1>   0.1770 
  3 C        2.0920    -0.4390     0.1090 C.ar  1 <1>   0.0860 
  4 C        0.1760     0.3350     1.3930 C.ar  1 <1>  -0.1500 
  5 C        3.2390    -0.1700    -0.7240 C.2   1 <1>   0.5440 
  6 C        1.7570    -1.7460     0.4570 C.ar  1 <1>  -0.1500 
  7 C       -0.1370    -0.9700     1.7340 C.ar  1 <1>  -0.1500 
  8 O        3.1450    -0.3660    -1.9200 O.2   1 <1>  -0.5700 
  9 N        4.4360     0.2690    -0.1970 N.am  1 <1>  -0.6600 
 10 C        0.6600    -1.9960     1.2590 C.ar  1 <1>   0.1770 
 11 C        5.5960     0.6190    -1.0600 C.3   1 <1>   0.1400 
 12 C        4.7060     0.4340     1.2570 C.3   1 <1>   0.1400 
 13 CL       0.2690    -3.6410     1.6840 Cl    1 <1>  -0.1770 
 14 C        5.9490     2.0910    -0.8330 C.3   1 <1>  -0.1600 
 15 C        5.1150     1.8860     1.5440 C.3   1 <1>  -0.1600 
 16 C        6.2740     2.3810     0.6480 C.3   1 <1>  -0.0190 
 17 C        7.6450     1.8110     1.0430 C.2   1 <1>   0.5690 
 18 O        7.7220     0.7960     1.6900 O.2   1 <1>  -0.5700 
 19 N        8.7930     2.4300     0.6790 N.am  1 <1>  -0.7300 
 20 C        9.0190     3.6570    -0.1050 C.3   1 <1>   0.2200 
 21 C        9.8790     3.3100    -1.3140 C.3   1 <1>  -0.1600 
 22 C        9.9080     4.5940     0.7020 C.3   1 <1>  -0.1600 
 23 C       11.3220     3.2670    -0.8000 C.3   1 <1>  -0.1600 
 24 C       11.3410     4.0920     0.4930 C.3   1 <1>  -0.1600 
 25 H       -0.4280     1.1540     1.7440 H     1 <1>   0.1500 
 26 H        2.3560    -2.5640     0.0960 H     1 <1>   0.1500 
 27 H       -0.9860    -1.1940     2.3560 H     1 <1>   0.1500 
 28 H        5.3640     0.4600    -2.0990 H     1 <1>   0.0800 
 29 H        6.4310    -0.0110    -0.8040 H     1 <1>   0.0800 
 30 H        5.4970    -0.2390     1.5420 H     1 <1>   0.0800 
 31 H        3.8410     0.1840     1.8450 H     1 <1>   0.0800 
 32 H        5.1120     2.6910    -1.1440 H     1 <1>   0.0800 
 33 H        6.7840     2.3490    -1.4570 H     1 <1>   0.0800 
 34 H        5.3950     1.9760     2.5780 H     1 <1>   0.0800 
 35 H        4.2570     2.5150     1.3880 H     1 <1>   0.0800 
 36 H        6.3310     3.4450     0.7790 H     1 <1>   0.0800 
 37 H        9.6510     1.9720     0.9890 H     1 <1>   0.3700 
 38 H        8.0920     4.1230    -0.3890 H     1 <1>   0.0800 
 39 H        9.5770     2.3880    -1.7790 H     1 <1>   0.0800 
 40 H        9.7900     4.1040    -2.0350 H     1 <1>   0.0800 
 41 H        9.6280     4.6290     1.7410 H     1 <1>   0.0800 
 42 H        9.8230     5.5840     0.2900 H     1 <1>   0.0800 
 43 H       11.6040     2.2500    -0.5840 H     1 <1>   0.0800 
 44 H       12.0030     3.6660    -1.5320 H     1 <1>   0.0800 
 45 H       11.6340     3.4650     1.3190 H     1 <1>   0.0800 
 46 H       12.0310     4.9160     0.4250 H     1 <1>   0.0800 
@<TRIPOS>BOND
  1   1   2  1   
  2   2   3  ar  
  3   2   4  ar  
  4   3   5  1   
  5   3   6  ar  
  6   4   7  ar  
  7   4  25  1   
  8   5   8  2   
  9   5   9  am  
 10   6  10  ar  
 11   6  26  1   
 12   7  10  ar  
 13   7  27  1   
 14   9  11  1   
 15   9  12  1   
 16  10  13  1   
 17  11  14  1   
 18  11  28  1   
 19  11  29  1   
 20  12  15  1   
 21  12  30  1   
 22  12  31  1   
 23  14  16  1   
 24  14  32  1   
 25  14  33  1   
 26  15  16  1   
 27  15  34  1   
 28  15  35  1   
 29  16  17  1   
 30  16  36  1   
 31  17  18  2   
 32  17  19  am  
 33  19  20  1   
 34  19  37  1   
 35  20  21  1   
 36  20  22  1   
 37  20  38  1   
 38  21  23  1   
 39  21  39  1   
 40  21  40  1   
 41  22  24  1   
 42  22  41  1   
 43  22  42  1   
 44  23  24  1   
 45  23  43  1   
 46  23  44  1   
 47  24  45  1   
 48  24  46  1   
@<TRIPOS>SUBSTRUCTURE
  1 ****   9 GROUP 4 **** **** 0

# MOE 2024.06 (io_trps.svl 2023.06)
