@<TRIPOS>MOLECULE
1-Methyl-3-(2-methyl-allyl)-8-phenethyl-5,6,7,8-tetrahydro-1H-1,3,4b,8,9-pentaaz
54 57 1 0 0 
SMALL
USER_CHARGES


@<TRIPOS>ATOM
  1 O        1.9070    -0.2910     0.4270 O.2   1 <1>  -0.5740 
  2 C        2.8190     0.5050     0.5300 C.2   1 <1>   0.6870 
  3 N        2.5660     1.8700     0.5640 N.am  1 <1>  -0.4250 
  4 N        4.1210     0.0380     0.6420 N.am  1 <1>  -0.4410 
  5 C        3.5760     2.7840     0.8070 C.2   1 <1>   0.7000 
  6 C        1.1970     2.3540     0.2460 C.3   1 <1>   0.2720 
  7 C        5.1350     0.9620     0.8080 C.2   1 <1>   0.4210 
  8 C        4.3920    -1.4290     0.6230 C.3   1 <1>   0.0530 
  9 O        3.3370     3.9740     0.9370 O.2   1 <1>  -0.5740 
 10 C        4.9150     2.2910     0.9030 C.2   1 <1>   0.2710 
 11 C        1.0350     2.4800    -1.2650 C.2   1 <1>  -0.2820 
 12 N        6.4760     0.7390     0.9040 N.pl3 1 <1>  -0.7030 
 13 N        6.1760     2.8840     1.0690 N.pl3 1 <1>  -0.7670 
 14 C        0.3660     1.5800    -1.9930 C.2   1 <1>  -0.3060 
 15 C        1.6740     3.7130    -1.8880 C.3   1 <1>  -0.1090 
 16 C        7.0830     1.9120     1.0630 C.cat 1 <1>   1.0690 
 17 C        6.4840     4.3220     1.1800 C.3   1 <1>   0.3490 
 18 N        8.4050     2.1520     1.1970 N.pl3 1 <1>  -0.5960 
 19 C        7.9130     4.5450     0.6790 C.3   1 <1>  -0.1670 
 20 C        8.9100     3.5520     1.2950 C.3   1 <1>   0.1610 
 21 C        9.4290     1.0910     1.4330 C.3   1 <1>   0.1610 
 22 C        9.9520     0.4970     0.1200 C.3   1 <1>  -0.0240 
 23 C        8.8540    -0.2660    -0.6010 C.ar  1 <1>  -0.1500 
 24 C        8.1990     0.3020    -1.6840 C.ar  1 <1>  -0.1570 
 25 C        8.4870    -1.5300    -0.1660 C.ar  1 <1>  -0.1570 
 26 C        7.1720    -0.3800    -2.3110 C.ar  1 <1>  -0.1570 
 27 C        7.4630    -2.2140    -0.7970 C.ar  1 <1>  -0.1570 
 28 C        6.8030    -1.6370    -1.8670 C.ar  1 <1>  -0.1570 
 29 H        1.0030     3.3010     0.7200 H     1 <1>   0.0730 
 30 H        0.4720     1.6560     0.6290 H     1 <1>   0.0730 
 31 H        4.3570    -1.7860    -0.3910 H     1 <1>   0.0730 
 32 H        3.6410    -1.9470     1.1950 H     1 <1>   0.0730 
 33 H        5.3540    -1.6500     1.0490 H     1 <1>   0.0730 
 34 H        6.9770    -0.1070     0.6160 H     1 <1>   0.4450 
 35 H        0.2260     1.6430    -3.0590 H     1 <1>   0.1430 
 36 H       -0.0970     0.6970    -1.5840 H     1 <1>   0.1430 
 37 H        2.7430     3.6820    -1.7860 H     1 <1>   0.0730 
 38 H        1.3050     4.6040    -1.4130 H     1 <1>   0.0730 
 39 H        1.4400     3.7690    -2.9370 H     1 <1>   0.0730 
 40 H        6.3940     4.6270     2.2090 H     1 <1>   0.0730 
 41 H        5.7920     4.9000     0.5880 H     1 <1>   0.0730 
 42 H        8.2190     5.5510     0.9110 H     1 <1>   0.0730 
 43 H        7.9320     4.4490    -0.3930 H     1 <1>   0.0730 
 44 H        9.8540     3.6340     0.7820 H     1 <1>   0.0730 
 45 H        9.0690     3.7930     2.3340 H     1 <1>   0.0730 
 46 H        9.0040     0.3060     2.0370 H     1 <1>   0.0730 
 47 H       10.2550     1.5070     1.9860 H     1 <1>   0.0730 
 48 H       10.7590    -0.1810     0.3380 H     1 <1>   0.0730 
 49 H       10.3520     1.2760    -0.5050 H     1 <1>   0.0730 
 50 H        8.4850     1.2740    -2.0490 H     1 <1>   0.1430 
 51 H        9.0020    -1.9980     0.6570 H     1 <1>   0.1430 
 52 H        6.6660     0.0600    -3.1550 H     1 <1>   0.1430 
 53 H        7.1880    -3.2020    -0.4660 H     1 <1>   0.1430 
 54 H        6.0120    -2.1720    -2.3660 H     1 <1>   0.1430 
@<TRIPOS>BOND
  1   1   2  2   
  2   2   3  am  
  3   2   4  am  
  4   3   5  am  
  5   3   6  1   
  6   4   7  1   
  7   4   8  1   
  8   5   9  2   
  9   5  10  1   
 10   6  11  1   
 11   6  29  1   
 12   6  30  1   
 13   7  10  2   
 14   7  12  1   
 15   8  31  1   
 16   8  32  1   
 17   8  33  1   
 18  10  13  1   
 19  11  14  2   
 20  11  15  1   
 21  12  16  ar  
 22  12  34  1   
 23  13  16  ar  
 24  13  17  1   
 25  14  35  1   
 26  14  36  1   
 27  15  37  1   
 28  15  38  1   
 29  15  39  1   
 30  16  18  ar  
 31  17  19  1   
 32  17  40  1   
 33  17  41  1   
 34  18  20  1   
 35  18  21  1   
 36  19  20  1   
 37  19  42  1   
 38  19  43  1   
 39  20  44  1   
 40  20  45  1   
 41  21  22  1   
 42  21  46  1   
 43  21  47  1   
 44  22  23  1   
 45  22  48  1   
 46  22  49  1   
 47  23  24  ar  
 48  23  25  ar  
 49  24  26  ar  
 50  24  50  1   
 51  25  27  ar  
 52  25  51  1   
 53  26  28  ar  
 54  26  52  1   
 55  27  28  ar  
 56  27  53  1   
 57  28  54  1   
@<TRIPOS>SUBSTRUCTURE
  1 ****   7 GROUP 4 **** **** 0

# MOE 2024.06 (io_trps.svl 2023.06)
