@<TRIPOS>MOLECULE
2-(4-Allyl-5-benzyl-4H-[1,2,4]triazol-3-ylsulfanyl)-N-cyclohexyl-acetamide
52 54 1 0 0 
SMALL
USER_CHARGES


@<TRIPOS>ATOM
  1 S       -2.5890    -0.3020    -3.2150 S.3   1 <1>  -0.2860 
  2 C       -1.8230     0.5850    -1.8580 C.2   1 <1>   0.2420 
  3 C       -3.9020    -1.2720    -2.3340 C.3   1 <1>   0.1310 
  4 N       -0.9910     0.0400    -1.0460 N.2   1 <1>  -0.3380 
  5 N       -2.1100     1.8530    -1.5640 N.pl3 1 <1>   0.0480 
  6 C       -4.7210    -0.3440    -1.4400 C.2   1 <1>   0.5690 
  7 N       -0.7040     0.9780    -0.1390 N.2   1 <1>  -0.3380 
  8 C       -1.3780     2.0360    -0.4530 C.2   1 <1>   0.0060 
  9 C       -3.0400     2.7720    -2.2590 C.3   1 <1>   0.2340 
 10 O       -5.2410     0.6200    -1.9460 O.2   1 <1>  -0.5700 
 11 N       -4.9020    -0.5310    -0.1080 N.am  1 <1>  -0.7300 
 12 C       -1.3600     3.3190     0.3630 C.3   1 <1>   0.1630 
 13 C       -2.2810     3.9380    -2.8750 C.2   1 <1>  -0.2880 
 14 C       -4.5300    -1.6070     0.8360 C.3   1 <1>   0.2200 
 15 C       -2.7400     3.6540     0.9190 C.ar  1 <1>  -0.1430 
 16 C       -2.5490     5.2310    -2.6650 C.2   1 <1>  -0.3000 
 17 C       -3.0140    -1.6780     1.0530 C.3   1 <1>  -0.1600 
 18 C       -5.1250    -2.9560     0.4110 C.3   1 <1>  -0.1600 
 19 C       -3.2380     4.9460     0.8350 C.ar  1 <1>  -0.1500 
 20 C       -3.5150     2.6680     1.5140 C.ar  1 <1>  -0.1500 
 21 C       -2.6590    -2.7790     2.0620 C.3   1 <1>  -0.1600 
 22 C       -4.7590    -4.0540     1.4220 C.3   1 <1>  -0.1600 
 23 C       -4.4970     5.2450     1.3260 C.ar  1 <1>  -0.1500 
 24 C       -4.7730     2.9660     2.0080 C.ar  1 <1>  -0.1500 
 25 C       -3.2400    -4.1340     1.6320 C.3   1 <1>  -0.1600 
 26 C       -5.2660     4.2550     1.9120 C.ar  1 <1>  -0.1500 
 27 H       -3.3990    -2.0380    -1.7840 H     1 <1>   0.0800 
 28 H       -4.5280    -1.7090    -3.0880 H     1 <1>   0.0800 
 29 H       -3.7760     3.1210    -1.5570 H     1 <1>   0.0800 
 30 H       -3.5570     2.2390    -3.0360 H     1 <1>   0.0800 
 31 H       -5.4370     0.2220     0.3300 H     1 <1>   0.3700 
 32 H       -0.9960     4.1200    -0.2540 H     1 <1>   0.0800 
 33 H       -0.6750     3.2030     1.1850 H     1 <1>   0.0800 
 34 H       -1.4850     3.6100    -3.5240 H     1 <1>   0.1500 
 35 H       -4.9700    -1.3540     1.7860 H     1 <1>   0.0800 
 36 H       -1.9980     6.0390    -3.1150 H     1 <1>   0.1500 
 37 H       -3.3430     5.5910    -2.0330 H     1 <1>   0.1500 
 38 H       -2.6520    -0.7330     1.4170 H     1 <1>   0.0800 
 39 H       -2.5080    -1.8940     0.1330 H     1 <1>   0.0800 
 40 H       -4.7520    -3.2470    -0.5520 H     1 <1>   0.0800 
 41 H       -6.1950    -2.8720     0.3510 H     1 <1>   0.0800 
 42 H       -2.6490     5.7270     0.3870 H     1 <1>   0.1500 
 43 H       -3.1390     1.6620     1.5950 H     1 <1>   0.1500 
 44 H       -3.0440    -2.5150     3.0320 H     1 <1>   0.0800 
 45 H       -1.5870    -2.8550     2.1430 H     1 <1>   0.0800 
 46 H       -5.1240    -5.0040     1.0710 H     1 <1>   0.0800 
 47 H       -5.2370    -3.8470     2.3640 H     1 <1>   0.0800 
 48 H       -4.8780     6.2490     1.2560 H     1 <1>   0.1500 
 49 H       -5.3670     2.1970     2.4690 H     1 <1>   0.1500 
 50 H       -3.0190    -4.8730     2.3830 H     1 <1>   0.0800 
 51 H       -2.7680    -4.4470     0.7160 H     1 <1>   0.0800 
 52 H       -6.2440     4.4890     2.2940 H     1 <1>   0.1500 
@<TRIPOS>BOND
  1   1   2  1   
  2   1   3  1   
  3   2   4  2   
  4   2   5  1   
  5   3   6  1   
  6   3  27  1   
  7   3  28  1   
  8   4   7  1   
  9   5   8  1   
 10   5   9  1   
 11   6  10  2   
 12   6  11  am  
 13   7   8  2   
 14   8  12  1   
 15   9  13  1   
 16   9  29  1   
 17   9  30  1   
 18  11  14  1   
 19  11  31  1   
 20  12  15  1   
 21  12  32  1   
 22  12  33  1   
 23  13  16  2   
 24  13  34  1   
 25  14  17  1   
 26  14  18  1   
 27  14  35  1   
 28  15  19  ar  
 29  15  20  ar  
 30  16  36  1   
 31  16  37  1   
 32  17  21  1   
 33  17  38  1   
 34  17  39  1   
 35  18  22  1   
 36  18  40  1   
 37  18  41  1   
 38  19  23  ar  
 39  19  42  1   
 40  20  24  ar  
 41  20  43  1   
 42  21  25  1   
 43  21  44  1   
 44  21  45  1   
 45  22  25  1   
 46  22  46  1   
 47  22  47  1   
 48  23  26  ar  
 49  23  48  1   
 50  24  26  ar  
 51  24  49  1   
 52  25  50  1   
 53  25  51  1   
 54  26  52  1   
@<TRIPOS>SUBSTRUCTURE
  1 ****   5 GROUP 4 **** **** 0

# MOE 2024.06 (io_trps.svl 2023.06)
