@<TRIPOS>MOLECULE
2-(2,4-Dimethyl-phenoxy)-N-[2-(4-propionyl-piperazin-1-yl)-phenyl]-acetamide
58 60 1 0 0 
SMALL
USER_CHARGES


@<TRIPOS>ATOM
  1 O       -0.2380     0.0890     1.3350 O.2   1 <1>  -0.5700 
  2 C        0.4640    -0.0210     0.3560 C.2   1 <1>   0.5690 
  3 N        1.8260    -0.1230     0.4650 N.am  1 <1>  -0.6600 
  4 C       -0.2000    -0.0610    -1.0190 C.3   1 <1>  -0.0990 
  5 C        2.7500    -0.3740    -0.6940 C.3   1 <1>   0.1400 
  6 C        2.4560    -0.3110     1.8150 C.3   1 <1>   0.1400 
  7 C       -1.7390    -0.0870    -0.9980 C.3   1 <1>  -0.2400 
  8 C        4.1330     0.2770    -0.5150 C.3   1 <1>   0.2090 
  9 C        3.8450     0.3360     1.9240 C.3   1 <1>   0.2090 
 10 N        4.7230    -0.0990     0.7980 N.pl3 1 <1>  -0.8380 
 11 C        6.1060     0.1080     0.9450 C.ar  1 <1>   0.1000 
 12 C        7.0060    -0.9470     0.7220 C.ar  1 <1>   0.1170 
 13 C        6.6010     1.3540     1.3110 C.ar  1 <1>  -0.1500 
 14 N        6.4670    -2.1840     0.3180 N.am  1 <1>  -0.5470 
 15 C        8.3670    -0.7240     0.8860 C.ar  1 <1>  -0.1500 
 16 C        7.9590     1.5620     1.4710 C.ar  1 <1>  -0.1500 
 17 C        7.0000    -3.4320     0.1580 C.2   1 <1>   0.5690 
 18 C        8.8430     0.5210     1.2600 C.ar  1 <1>  -0.1500 
 19 O        8.1300    -3.7180     0.4750 O.2   1 <1>  -0.5700 
 20 C        6.1420    -4.5440    -0.4390 C.3   1 <1>   0.1810 
 21 O        5.0650    -4.0440    -1.2240 O.3   1 <1>  -0.3630 
 22 C        3.7980    -3.9590    -0.7440 C.ar  1 <1>   0.0820 
 23 C        2.7580    -3.9250    -1.6690 C.ar  1 <1>  -0.1430 
 24 C        3.5130    -3.8940     0.6170 C.ar  1 <1>  -0.1500 
 25 C        1.4500    -3.8200    -1.2250 C.ar  1 <1>  -0.1500 
 26 C        3.0450    -4.0010    -3.1620 C.3   1 <1>  -0.0970 
 27 C        2.2020    -3.7970     1.0450 C.ar  1 <1>  -0.1500 
 28 C        1.1660    -3.7490     0.1290 C.ar  1 <1>  -0.1430 
 29 C       -0.2650    -3.6140     0.6200 C.3   1 <1>  -0.0970 
 30 H        0.1430    -0.9390    -1.5330 H     1 <1>   0.0800 
 31 H        0.1200     0.8030    -1.5710 H     1 <1>   0.0800 
 32 H        2.3210    -0.0060    -1.6080 H     1 <1>   0.0800 
 33 H        2.8860    -1.4320    -0.7970 H     1 <1>   0.0800 
 34 H        2.5540    -1.3620     2.0080 H     1 <1>   0.0800 
 35 H        1.8240     0.1040     2.5800 H     1 <1>   0.0800 
 36 H       -2.0880    -0.9480    -0.4560 H     1 <1>   0.0800 
 37 H       -2.1280    -0.1260    -2.0000 H     1 <1>   0.0800 
 38 H       -2.1180     0.7970    -0.5140 H     1 <1>   0.0800 
 39 H        4.0370     1.3470    -0.5760 H     1 <1>   0.0800 
 40 H        4.7860    -0.0470    -1.3070 H     1 <1>   0.0800 
 41 H        4.2970     0.0550     2.8590 H     1 <1>   0.0800 
 42 H        3.7340     1.4060     1.9100 H     1 <1>   0.0800 
 43 H        5.9200     2.1690     1.4700 H     1 <1>   0.1500 
 44 H        5.4640    -2.0930     0.1270 H     1 <1>   0.3700 
 45 H        9.0700    -1.5180     0.7190 H     1 <1>   0.1500 
 46 H        8.3280     2.5320     1.7580 H     1 <1>   0.1500 
 47 H        9.9010     0.6750     1.3830 H     1 <1>   0.1500 
 48 H        5.7650    -5.1920     0.3290 H     1 <1>   0.0800 
 49 H        6.7600    -5.1290    -1.0940 H     1 <1>   0.0800 
 50 H        4.2910    -3.9060     1.3560 H     1 <1>   0.1500 
 51 H        0.6430    -3.7930    -1.9360 H     1 <1>   0.1500 
 52 H        3.6840    -3.1870    -3.4540 H     1 <1>   0.0800 
 53 H        2.1390    -3.9500    -3.7360 H     1 <1>   0.0800 
 54 H        3.5420    -4.9270    -3.3880 H     1 <1>   0.0800 
 55 H        1.9860    -3.7500     2.0980 H     1 <1>   0.1500 
 56 H       -0.9340    -3.4070    -0.1960 H     1 <1>   0.0800 
 57 H       -0.3370    -2.8080     1.3280 H     1 <1>   0.0800 
 58 H       -0.5750    -4.5260     1.0980 H     1 <1>   0.0800 
@<TRIPOS>BOND
  1   1   2  2   
  2   2   3  am  
  3   2   4  1   
  4   3   5  1   
  5   3   6  1   
  6   4   7  1   
  7   4  30  1   
  8   4  31  1   
  9   5   8  1   
 10   5  32  1   
 11   5  33  1   
 12   6   9  1   
 13   6  34  1   
 14   6  35  1   
 15   7  36  1   
 16   7  37  1   
 17   7  38  1   
 18   8  10  1   
 19   8  39  1   
 20   8  40  1   
 21   9  10  1   
 22   9  41  1   
 23   9  42  1   
 24  10  11  1   
 25  11  12  ar  
 26  11  13  ar  
 27  12  14  1   
 28  12  15  ar  
 29  13  16  ar  
 30  13  43  1   
 31  14  17  am  
 32  14  44  1   
 33  15  18  ar  
 34  15  45  1   
 35  16  18  ar  
 36  16  46  1   
 37  17  19  2   
 38  17  20  1   
 39  18  47  1   
 40  20  21  1   
 41  20  48  1   
 42  20  49  1   
 43  21  22  1   
 44  22  23  ar  
 45  22  24  ar  
 46  23  25  ar  
 47  23  26  1   
 48  24  27  ar  
 49  24  50  1   
 50  25  28  ar  
 51  25  51  1   
 52  26  52  1   
 53  26  53  1   
 54  26  54  1   
 55  27  28  ar  
 56  27  55  1   
 57  28  29  1   
 58  29  56  1   
 59  29  57  1   
 60  29  58  1   
@<TRIPOS>SUBSTRUCTURE
  1 ****  10 GROUP 4 **** **** 0

# MOE 2024.06 (io_trps.svl 2023.06)
