@<TRIPOS>MOLECULE
2-(2,4-Dimethyl-phenoxy)-1-(4-methyl-piperazin-1-yl)-ethanone
42 43 1 0 0 
SMALL
USER_CHARGES


@<TRIPOS>ATOM
  1 O        0.4400    -0.6300    -1.6800 O.2   1 <1>  -0.5700 
  2 C        0.4030    -1.7400    -1.2060 C.2   1 <1>   0.5690 
  3 N       -0.6650    -2.1250    -0.4200 N.am  1 <1>  -0.6600 
  4 C        1.5730    -2.6710    -1.5260 C.3   1 <1>   0.1810 
  5 C       -1.6680    -1.1110     0.0390 C.3   1 <1>   0.1400 
  6 C       -0.8400    -3.4980     0.1560 C.3   1 <1>   0.1400 
  7 O        2.0730    -3.2970    -0.3520 O.3   1 <1>  -0.3620 
  8 C       -3.1080    -1.6390    -0.0790 C.3   1 <1>   0.3430 
  9 C       -2.3040    -3.9760     0.0660 C.3   1 <1>   0.3430 
 10 C        3.4100    -3.2620    -0.1720 C.ar  1 <1>   0.0820 
 11 N       -3.2770    -2.9660     0.6130 N.4   1 <1>  -0.9590 
 12 C        4.0510    -2.1040     0.2630 C.ar  1 <1>  -0.1440 
 13 C        4.1340    -4.4160    -0.4200 C.ar  1 <1>  -0.1500 
 14 C       -4.6850    -3.4540     0.5010 C.3   1 <1>   0.2630 
 15 C        5.4290    -2.1230     0.4170 C.ar  1 <1>  -0.1500 
 16 C        3.2840    -0.8270     0.5790 C.3   1 <1>  -0.0970 
 17 C        5.5080    -4.4200    -0.2580 C.ar  1 <1>  -0.1500 
 18 C        6.1610    -3.2710     0.1570 C.ar  1 <1>  -0.1440 
 19 C        7.6680    -3.2680     0.3360 C.3   1 <1>  -0.0970 
 20 H        2.3630    -2.1040    -1.9870 H     1 <1>   0.0800 
 21 H        1.2600    -3.4400    -2.2050 H     1 <1>   0.0800 
 22 H       -1.5880    -0.2080    -0.5430 H     1 <1>   0.0800 
 23 H       -1.4590    -0.8500     1.0620 H     1 <1>   0.0800 
 24 H       -0.5200    -3.4900     1.1840 H     1 <1>   0.0800 
 25 H       -0.2260    -4.2080    -0.3690 H     1 <1>   0.0800 
 26 H       -3.3480    -1.7400    -1.1250 H     1 <1>   0.0800 
 27 H       -3.7820    -0.9140     0.3460 H     1 <1>   0.0800 
 28 H       -2.4000    -4.9060     0.6040 H     1 <1>   0.0800 
 29 H       -2.5320    -4.1710    -0.9680 H     1 <1>   0.0800 
 30 H       -3.0510    -2.8250     1.6090 H     1 <1>   0.4500 
 31 H        3.6250    -5.3050    -0.7400 H     1 <1>   0.1500 
 32 H       -4.9490    -3.6080    -0.5330 H     1 <1>   0.0800 
 33 H       -5.3660    -2.7350     0.9270 H     1 <1>   0.0800 
 34 H       -4.8010    -4.3880     1.0290 H     1 <1>   0.0800 
 35 H        5.9400    -1.2350     0.7470 H     1 <1>   0.1500 
 36 H        2.3610    -1.0600     1.0790 H     1 <1>   0.0800 
 37 H        3.0650    -0.2940    -0.3290 H     1 <1>   0.0800 
 38 H        3.8600    -0.1870     1.2210 H     1 <1>   0.0800 
 39 H        6.0650    -5.3190    -0.4550 H     1 <1>   0.1500 
 40 H        8.0750    -2.3090     0.0720 H     1 <1>   0.0800 
 41 H        8.1250    -4.0130    -0.2910 H     1 <1>   0.0800 
 42 H        7.9120    -3.4800     1.3610 H     1 <1>   0.0800 
@<TRIPOS>BOND
  1   1   2  2   
  2   2   3  am  
  3   2   4  1   
  4   3   5  1   
  5   3   6  1   
  6   4   7  1   
  7   4  20  1   
  8   4  21  1   
  9   5   8  1   
 10   5  22  1   
 11   5  23  1   
 12   6   9  1   
 13   6  24  1   
 14   6  25  1   
 15   7  10  1   
 16   8  11  1   
 17   8  26  1   
 18   8  27  1   
 19   9  11  1   
 20   9  28  1   
 21   9  29  1   
 22  10  12  ar  
 23  10  13  ar  
 24  11  14  1   
 25  11  30  1   
 26  12  15  ar  
 27  12  16  1   
 28  13  17  ar  
 29  13  31  1   
 30  14  32  1   
 31  14  33  1   
 32  14  34  1   
 33  15  18  ar  
 34  15  35  1   
 35  16  36  1   
 36  16  37  1   
 37  16  38  1   
 38  17  18  ar  
 39  17  39  1   
 40  18  19  1   
 41  19  40  1   
 42  19  41  1   
 43  19  42  1   
@<TRIPOS>SUBSTRUCTURE
  1 ****   7 GROUP 4 **** **** 0

# MOE 2024.06 (io_trps.svl 2023.06)
