@<TRIPOS>MOLECULE
5-Oxo-1-p-tolyl-pyrrolidine-3-carboxylic acid (5-isopropyl-[1,3,4]thiadiazol-2-y
44 46 1 0 0 
SMALL
USER_CHARGES


@<TRIPOS>ATOM
  1 S       -1.0640     1.2230     1.0480 S.3   1 <1>  -0.0800 
  2 C       -1.2160    -0.1680     0.0250 C.2   1 <1>   0.4420 
  3 C        0.0940     1.8420    -0.0810 C.2   1 <1>   0.1980 
  4 N       -0.4610    -0.0930    -1.0090 N.2   1 <1>  -0.3380 
  5 N       -2.1010    -1.1430     0.4380 N.am  1 <1>  -0.4940 
  6 N        0.2820     1.0540    -1.0630 N.2   1 <1>  -0.3380 
  7 C        0.7240     3.1990     0.2210 C.3   1 <1>   0.1000 
  8 C       -2.4080    -2.3340    -0.1560 C.2   1 <1>   0.5690 
  9 C        1.3220     3.8410    -1.0400 C.3   1 <1>  -0.2400 
 10 C        1.8060     3.0640     1.3000 C.3   1 <1>  -0.2400 
 11 O       -1.8870    -2.7250    -1.1670 O.2   1 <1>  -0.5700 
 12 C       -3.4520    -3.2130     0.5200 C.3   1 <1>  -0.0190 
 13 C       -3.8860    -4.4220    -0.3230 C.3   1 <1>   0.1400 
 14 C       -4.7670    -2.4910     0.8510 C.3   1 <1>  -0.0990 
 15 N       -5.2870    -4.6700     0.0750 N.am  1 <1>  -0.4770 
 16 C       -5.7920    -3.5840     0.7320 C.2   1 <1>   0.5690 
 17 C       -5.9140    -5.9020    -0.2030 C.ar  1 <1>   0.1170 
 18 O       -6.8980    -3.4520     1.1930 O.2   1 <1>  -0.5700 
 19 C       -6.8350    -6.4580     0.6790 C.ar  1 <1>  -0.1500 
 20 C       -5.6190    -6.6070    -1.3670 C.ar  1 <1>  -0.1500 
 21 C       -7.4350    -7.6760     0.4140 C.ar  1 <1>  -0.1500 
 22 C       -6.2160    -7.8260    -1.6340 C.ar  1 <1>  -0.1500 
 23 C       -7.1260    -8.3700    -0.7440 C.ar  1 <1>  -0.1440 
 24 C       -7.7860    -9.7060    -1.0350 C.3   1 <1>  -0.0970 
 25 H       -2.5840    -0.9290     1.3050 H     1 <1>   0.3700 
 26 H       -0.0500     3.8500     0.5890 H     1 <1>   0.0800 
 27 H        2.1120     3.2270    -1.4350 H     1 <1>   0.0800 
 28 H        1.7180     4.8150    -0.8160 H     1 <1>   0.0800 
 29 H        0.5630     3.9440    -1.7950 H     1 <1>   0.0800 
 30 H        2.5860     2.4030     0.9630 H     1 <1>   0.0800 
 31 H        1.3860     2.6630     2.2050 H     1 <1>   0.0800 
 32 H        2.2380     4.0230     1.5220 H     1 <1>   0.0800 
 33 H       -3.0260    -3.5960     1.4300 H     1 <1>   0.0800 
 34 H       -3.2690    -5.2830    -0.1250 H     1 <1>   0.0800 
 35 H       -3.8620    -4.1930    -1.3750 H     1 <1>   0.0800 
 36 H       -4.9980    -1.7330     0.1240 H     1 <1>   0.0800 
 37 H       -4.7690    -2.0750     1.8410 H     1 <1>   0.0800 
 38 H       -7.0880    -5.9350     1.5830 H     1 <1>   0.1500 
 39 H       -4.9240    -6.2030    -2.0780 H     1 <1>   0.1500 
 40 H       -8.1450    -8.0790     1.1140 H     1 <1>   0.1500 
 41 H       -5.9710    -8.3490    -2.5420 H     1 <1>   0.1500 
 42 H       -8.7070    -9.5470    -1.5660 H     1 <1>   0.0800 
 43 H       -7.9980   -10.2270    -0.1190 H     1 <1>   0.0800 
 44 H       -7.1400   -10.3220    -1.6350 H     1 <1>   0.0800 
@<TRIPOS>BOND
  1   1   2  1   
  2   1   3  1   
  3   2   4  2   
  4   2   5  1   
  5   3   6  2   
  6   3   7  1   
  7   4   6  1   
  8   5   8  am  
  9   5  25  1   
 10   7   9  1   
 11   7  10  1   
 12   7  26  1   
 13   8  11  2   
 14   8  12  1   
 15   9  27  1   
 16   9  28  1   
 17   9  29  1   
 18  10  30  1   
 19  10  31  1   
 20  10  32  1   
 21  12  13  1   
 22  12  14  1   
 23  12  33  1   
 24  13  15  1   
 25  13  34  1   
 26  13  35  1   
 27  14  16  1   
 28  14  36  1   
 29  14  37  1   
 30  15  16  am  
 31  15  17  1   
 32  16  18  2   
 33  17  19  ar  
 34  17  20  ar  
 35  19  21  ar  
 36  19  38  1   
 37  20  22  ar  
 38  20  39  1   
 39  21  23  ar  
 40  21  40  1   
 41  22  23  ar  
 42  22  41  1   
 43  23  24  1   
 44  24  42  1   
 45  24  43  1   
 46  24  44  1   
@<TRIPOS>SUBSTRUCTURE
  1 ****  12 GROUP 4 **** **** 0

# MOE 2024.06 (io_trps.svl 2023.06)
