@<TRIPOS>MOLECULE
8-[4-(4-Fluoro-phenyl)-piperazin-1-ylmethyl]-1,3-dimethyl-3,7-dihydro-purine-2,6
48 51 1 0 0 
SMALL
USER_CHARGES


@<TRIPOS>ATOM
  1 F       -0.7080     0.4920     0.8040 F     1 <1>  -0.1900 
  2 C       -1.2930     1.6580     0.6970 C.ar  1 <1>   0.1900 
  3 C       -2.2150     1.8510    -0.3150 C.ar  1 <1>  -0.1500 
  4 C       -0.9680     2.6530     1.5990 C.ar  1 <1>  -0.1500 
  5 C       -2.8300     3.0860    -0.4230 C.ar  1 <1>  -0.1500 
  6 C       -1.5920     3.8830     1.4770 C.ar  1 <1>  -0.1500 
  7 C       -2.5240     4.1110     0.4710 C.ar  1 <1>   0.1000 
  8 N       -3.1300     5.3580     0.3810 N.pl3 1 <1>  -0.8380 
  9 C       -4.5740     5.4170     0.7480 C.3   1 <1>   0.2090 
 10 C       -2.8270     6.1590    -0.8410 C.3   1 <1>   0.2090 
 11 C       -5.0570     6.8760     0.8490 C.3   1 <1>   0.1100 
 12 C       -3.3530     7.6010    -0.7020 C.3   1 <1>   0.1100 
 13 N       -4.8030     7.6410    -0.4000 N.3   1 <1>  -0.8100 
 14 C       -5.2630     9.0380    -0.2480 C.3   1 <1>   0.2900 
 15 C       -6.7800     9.0890    -0.2100 C.2   1 <1>   0.0070 
 16 N       -7.5160     8.2830    -1.0130 N.pl3 1 <1>   0.0330 
 17 N       -7.4930     9.8450     0.5570 N.2   1 <1>  -0.5650 
 18 C       -8.7940     8.5560    -0.7130 C.2   1 <1>  -0.0880 
 19 C       -8.7880     9.5170     0.2510 C.2   1 <1>   0.1410 
 20 N       -9.9780     8.0110    -1.2090 N.am  1 <1>  -0.4240 
 21 C      -10.0380     9.9980     0.7790 C.2   1 <1>   0.7160 
 22 C      -11.1910     8.4440    -0.6830 C.2   1 <1>   0.6900 
 23 C       -9.9340     6.9520    -2.2540 C.3   1 <1>   0.0600 
 24 O      -10.1060    10.8530     1.6520 O.2   1 <1>  -0.5700 
 25 N      -11.2170     9.4550     0.2720 N.am  1 <1>  -0.4200 
 26 O      -12.2320     7.9310    -1.0550 O.2   1 <1>  -0.5700 
 27 C      -12.5290     9.9320     0.8020 C.3   1 <1>   0.0600 
 28 H       -2.4410     1.0510    -0.9970 H     1 <1>   0.1500 
 29 H       -0.2460     2.4670     2.3730 H     1 <1>   0.1500 
 30 H       -3.5510     3.2630    -1.1980 H     1 <1>   0.1500 
 31 H       -1.3650     4.6820     2.1590 H     1 <1>   0.1500 
 32 H       -4.7180     4.9260     1.6940 H     1 <1>   0.0800 
 33 H       -5.1570     4.8990     0.0070 H     1 <1>   0.0800 
 34 H       -3.2810     5.6970    -1.7000 H     1 <1>   0.0800 
 35 H       -1.7620     6.1800    -0.9940 H     1 <1>   0.0800 
 36 H       -4.5510     7.3450     1.6760 H     1 <1>   0.0800 
 37 H       -6.1110     6.8710     1.0690 H     1 <1>   0.0800 
 38 H       -3.1650     8.1260    -1.6230 H     1 <1>   0.0800 
 39 H       -2.8010     8.0910     0.0820 H     1 <1>   0.0800 
 40 H       -4.9270     9.6230    -1.0860 H     1 <1>   0.0800 
 41 H       -4.8620     9.4730     0.6520 H     1 <1>   0.0800 
 42 H       -7.1240     7.5820    -1.6470 H     1 <1>   0.2700 
 43 H       -9.1410     7.1550    -2.9520 H     1 <1>   0.0800 
 44 H      -10.8620     6.9210    -2.7980 H     1 <1>   0.0800 
 45 H       -9.7700     5.9960    -1.7890 H     1 <1>   0.0800 
 46 H      -12.4770    10.9790     1.0450 H     1 <1>   0.0800 
 47 H      -12.7790     9.3780     1.6880 H     1 <1>   0.0800 
 48 H      -13.3060     9.7960     0.0700 H     1 <1>   0.0800 
@<TRIPOS>BOND
  1   1   2  1   
  2   2   3  ar  
  3   2   4  ar  
  4   3   5  ar  
  5   3  28  1   
  6   4   6  ar  
  7   4  29  1   
  8   5   7  ar  
  9   5  30  1   
 10   6   7  ar  
 11   6  31  1   
 12   7   8  1   
 13   8   9  1   
 14   8  10  1   
 15   9  11  1   
 16   9  32  1   
 17   9  33  1   
 18  10  12  1   
 19  10  34  1   
 20  10  35  1   
 21  11  13  1   
 22  11  36  1   
 23  11  37  1   
 24  12  13  1   
 25  12  38  1   
 26  12  39  1   
 27  13  14  1   
 28  14  15  1   
 29  14  40  1   
 30  14  41  1   
 31  15  16  1   
 32  15  17  2   
 33  16  18  1   
 34  16  42  1   
 35  17  19  1   
 36  18  19  2   
 37  18  20  1   
 38  19  21  1   
 39  20  22  am  
 40  20  23  1   
 41  21  24  2   
 42  21  25  am  
 43  22  25  am  
 44  22  26  2   
 45  23  43  1   
 46  23  44  1   
 47  23  45  1   
 48  25  27  1   
 49  27  46  1   
 50  27  47  1   
 51  27  48  1   
@<TRIPOS>SUBSTRUCTURE
  1 ****  11 GROUP 4 **** **** 0

# MOE 2024.06 (io_trps.svl 2023.06)
