@<TRIPOS>MOLECULE
[4-Ethyl-5-(5-p-tolyl-tetrazol-2-ylmethyl)-4H-[1,2,4]triazol-3-ylsulfanyl]-aceti
41 43 1 0 0 
SMALL
USER_CHARGES


@<TRIPOS>ATOM
  1 S       -0.5560     0.9070    -0.8060 S.3   1 <1>  -0.2860 
  2 C       -1.3770     1.6230     0.6250 C.2   1 <1>   0.2420 
  3 C        0.5960    -0.3640    -0.0830 C.3   1 <1>  -0.0360 
  4 N       -1.1780     1.2480     1.8400 N.2   1 <1>  -0.3380 
  5 N       -2.2570     2.6190     0.5100 N.pl3 1 <1>   0.0480 
  6 C        1.4570    -1.0100    -1.1480 C.2   1 <1>   0.9060 
  7 N       -1.9570     2.0260     2.5940 N.2   1 <1>  -0.3380 
  8 C       -2.5870     2.8290     1.8010 C.2   1 <1>   0.0060 
  9 C       -2.6900     3.2830    -0.7460 C.3   1 <1>   0.0960 
 10 O        1.0940    -2.0860    -1.6390 O.co2 1 <1>  -0.9000 
 11 O        2.5210    -0.4660    -1.4670 O.co2 1 <1>  -0.9000 
 12 C       -3.5480     3.8790     2.3370 C.3   1 <1>   0.2760 
 13 C       -2.0500     4.6680    -0.8840 C.3   1 <1>  -0.2400 
 14 N       -4.7910     3.9750     1.5510 N.pl3 1 <1>   0.5800 
 15 N       -5.1310     5.0710     0.8980 N.2   1 <1>  -0.4180 
 16 N       -5.6430     2.9870     1.3870 N.2   1 <1>  -0.7070 
 17 N       -6.2210     4.7980     0.3050 N.2   1 <1>  -0.2270 
 18 C       -6.5250     3.5300     0.6120 C.2   1 <1>   0.4620 
 19 C       -7.7100     2.8570     0.1060 C.ar  1 <1>   0.0540 
 20 C       -8.6520     3.5160    -0.6870 C.ar  1 <1>  -0.1500 
 21 C       -7.9560     1.5130     0.3940 C.ar  1 <1>  -0.1500 
 22 C       -9.7740     2.8680    -1.1690 C.ar  1 <1>  -0.1500 
 23 C       -9.0770     0.8610    -0.0850 C.ar  1 <1>  -0.1500 
 24 C       -9.9940     1.5340    -0.8730 C.ar  1 <1>  -0.1440 
 25 C      -11.2260     0.8210    -1.4000 C.3   1 <1>  -0.0970 
 26 H       -0.0070    -1.1070     0.4000 H     1 <1>   0.0800 
 27 H        1.2190     0.1360     0.6310 H     1 <1>   0.0800 
 28 H       -3.7610     3.3580    -0.7630 H     1 <1>   0.0800 
 29 H       -2.4050     2.6750    -1.5860 H     1 <1>   0.0800 
 30 H       -3.0660     4.8380     2.3370 H     1 <1>   0.0800 
 31 H       -3.8160     3.6340     3.3470 H     1 <1>   0.0800 
 32 H       -2.3530     5.3150    -0.0820 H     1 <1>   0.0800 
 33 H       -2.3580     5.1150    -1.8120 H     1 <1>   0.0800 
 34 H       -0.9770     4.5800    -0.8900 H     1 <1>   0.0800 
 35 H       -8.5080     4.5530    -0.9340 H     1 <1>   0.1500 
 36 H       -7.2550     0.9700     1.0050 H     1 <1>   0.1500 
 37 H      -10.4800     3.4080    -1.7770 H     1 <1>   0.1500 
 38 H       -9.2320    -0.1760     0.1590 H     1 <1>   0.1500 
 39 H      -11.5290     1.2390    -2.3430 H     1 <1>   0.0800 
 40 H      -12.0340     0.9250    -0.6980 H     1 <1>   0.0800 
 41 H      -11.0230    -0.2250    -1.5430 H     1 <1>   0.0800 
@<TRIPOS>BOND
  1   1   2  1   
  2   1   3  1   
  3   2   4  2   
  4   2   5  1   
  5   3   6  1   
  6   3  26  1   
  7   3  27  1   
  8   4   7  1   
  9   5   8  1   
 10   5   9  1   
 11   6  10  ar  
 12   6  11  ar  
 13   7   8  2   
 14   8  12  1   
 15   9  13  1   
 16   9  28  1   
 17   9  29  1   
 18  12  14  1   
 19  12  30  1   
 20  12  31  1   
 21  13  32  1   
 22  13  33  1   
 23  13  34  1   
 24  14  15  1   
 25  14  16  1   
 26  15  17  2   
 27  16  18  2   
 28  17  18  1   
 29  18  19  1   
 30  19  20  ar  
 31  19  21  ar  
 32  20  22  ar  
 33  20  35  1   
 34  21  23  ar  
 35  21  36  1   
 36  22  24  ar  
 37  22  37  1   
 38  23  24  ar  
 39  23  38  1   
 40  24  25  1   
 41  25  39  1   
 42  25  40  1   
 43  25  41  1   
@<TRIPOS>SUBSTRUCTURE
  1 ****   5 GROUP 4 **** **** 0

# MOE 2024.06 (io_trps.svl 2023.06)
