@<TRIPOS>MOLECULE
4-Chloro-N-cycloheptyl-3-(morpholine-4-sulfonyl)-benzamide
51 53 1 0 0 
SMALL
USER_CHARGES


@<TRIPOS>ATOM
  1 CL       0.3760     0.1410    -2.6490 Cl    1 <1>  -0.1770 
  2 C        1.5710    -0.8180    -1.8170 C.ar  1 <1>   0.1770 
  3 C        1.2850    -2.0730    -1.2910 C.ar  1 <1>  -0.0090 
  4 C        2.8260    -0.2500    -1.6920 C.ar  1 <1>  -0.1500 
  5 S       -0.3430    -2.8610    -1.4060 S.o2  1 <1>   1.4470 
  6 C        2.3130    -2.7220    -0.6160 C.ar  1 <1>  -0.1500 
  7 C        3.8270    -0.9270    -1.0220 C.ar  1 <1>  -0.1500 
  8 O       -0.1470    -4.2900    -1.2950 O.2   1 <1>  -0.6500 
  9 O       -1.1380    -2.3720    -2.5090 O.2   1 <1>  -0.6500 
 10 N       -1.1090    -2.3700     0.0250 N.am  1 <1>  -0.8490 
 11 C        3.5920    -2.1840    -0.4670 C.ar  1 <1>   0.0860 
 12 C       -1.6360    -0.9960    -0.0420 C.3   1 <1>   0.1960 
 13 C       -2.1990    -3.2880     0.3950 C.3   1 <1>   0.1960 
 14 C        4.6230    -2.9120     0.2490 C.2   1 <1>   0.5440 
 15 C       -2.3360    -0.6050     1.2730 C.3   1 <1>   0.1200 
 16 C       -2.8910    -2.8390     1.6950 C.3   1 <1>   0.1200 
 17 O        4.3300    -3.6260     1.1860 O.2   1 <1>  -0.5700 
 18 N        5.9320    -2.8120    -0.1280 N.am  1 <1>  -0.7300 
 19 O       -3.3470    -1.5210     1.5830 O.3   1 <1>  -0.5600 
 20 C        7.0640    -3.5080     0.5100 C.3   1 <1>   0.2200 
 21 C        8.0680    -2.4420     0.9620 C.3   1 <1>  -0.1600 
 22 C        7.6150    -4.5310    -0.4920 C.3   1 <1>  -0.1600 
 23 C        9.3640    -2.9910     1.5840 C.3   1 <1>  -0.1600 
 24 C        8.5710    -5.5380     0.1660 C.3   1 <1>  -0.1600 
 25 C       10.3010    -3.6100     0.5370 C.3   1 <1>  -0.1600 
 26 C       10.0400    -5.0930     0.2290 C.3   1 <1>  -0.1600 
 27 H        3.0120     0.7220    -2.1140 H     1 <1>   0.1500 
 28 H        2.1200    -3.6900    -0.1800 H     1 <1>   0.1500 
 29 H        4.7960    -0.4710    -0.9180 H     1 <1>   0.1500 
 30 H       -2.3420    -0.9030    -0.8510 H     1 <1>   0.0800 
 31 H       -0.8310    -0.3060    -0.2180 H     1 <1>   0.0800 
 32 H       -1.8050    -4.2800     0.5440 H     1 <1>   0.0800 
 33 H       -2.9280    -3.3360    -0.3970 H     1 <1>   0.0800 
 34 H       -2.7890     0.3650     1.1790 H     1 <1>   0.0800 
 35 H       -1.6300    -0.5830     2.0850 H     1 <1>   0.0800 
 36 H       -2.2070    -2.8980     2.5240 H     1 <1>   0.0800 
 37 H       -3.7410    -3.4650     1.9010 H     1 <1>   0.0800 
 38 H        6.1740    -2.3110    -0.9810 H     1 <1>   0.3700 
 39 H        6.7080    -4.0350     1.3810 H     1 <1>   0.0800 
 40 H        7.5810    -1.8330     1.7030 H     1 <1>   0.0800 
 41 H        8.3200    -1.8070     0.1320 H     1 <1>   0.0800 
 42 H        8.0950    -4.0410    -1.3200 H     1 <1>   0.0800 
 43 H        6.7780    -5.0910    -0.8750 H     1 <1>   0.0800 
 44 H        9.1440    -3.6980     2.3660 H     1 <1>   0.0800 
 45 H        9.8790    -2.1630     2.0390 H     1 <1>   0.0800 
 46 H        8.5320    -6.4610    -0.3880 H     1 <1>   0.0800 
 47 H        8.2210    -5.7630     1.1590 H     1 <1>   0.0800 
 48 H       11.3140    -3.5240     0.8910 H     1 <1>   0.0800 
 49 H       10.2470    -3.0400    -0.3750 H     1 <1>   0.0800 
 50 H       10.5110    -5.3210    -0.7120 H     1 <1>   0.0800 
 51 H       10.5330    -5.6910     0.9760 H     1 <1>   0.0800 
@<TRIPOS>BOND
  1   1   2  1   
  2   2   3  ar  
  3   2   4  ar  
  4   3   5  1   
  5   3   6  ar  
  6   4   7  ar  
  7   4  27  1   
  8   5   8  2   
  9   5   9  2   
 10   5  10  am  
 11   6  11  ar  
 12   6  28  1   
 13   7  11  ar  
 14   7  29  1   
 15  10  12  1   
 16  10  13  1   
 17  11  14  1   
 18  12  15  1   
 19  12  30  1   
 20  12  31  1   
 21  13  16  1   
 22  13  32  1   
 23  13  33  1   
 24  14  17  2   
 25  14  18  am  
 26  15  19  1   
 27  15  34  1   
 28  15  35  1   
 29  16  19  1   
 30  16  36  1   
 31  16  37  1   
 32  18  20  1   
 33  18  38  1   
 34  20  21  1   
 35  20  22  1   
 36  20  39  1   
 37  21  23  1   
 38  21  40  1   
 39  21  41  1   
 40  22  24  1   
 41  22  42  1   
 42  22  43  1   
 43  23  25  1   
 44  23  44  1   
 45  23  45  1   
 46  24  26  1   
 47  24  46  1   
 48  24  47  1   
 49  25  26  1   
 50  25  48  1   
 51  25  49  1   
 52  26  50  1   
 53  26  51  1   
@<TRIPOS>SUBSTRUCTURE
  1 ****   6 GROUP 4 **** **** 0

# MOE 2024.06 (io_trps.svl 2023.06)
