@<TRIPOS>MOLECULE
2-Oxo-1-oxa-spiro[4.4]nonane-4-carboxylic acid naphthalen-1-ylamide
42 45 1 0 0 
SMALL
USER_CHARGES


@<TRIPOS>ATOM
  1 O       -4.6280     0.9980    -3.6400 O.2   1 <1>  -0.5700 
  2 C       -4.1020     1.3580    -2.6230 C.2   1 <1>   0.6590 
  3 O       -4.1380     0.6790    -1.4960 O.3   1 <1>  -0.4300 
  4 C       -3.2830     2.6100    -2.4830 C.3   1 <1>  -0.0990 
  5 C       -3.3660     1.2700    -0.4800 C.3   1 <1>   0.2800 
  6 C       -3.1100     2.7120    -0.9620 C.3   1 <1>  -0.0190 
  7 C       -4.0800     1.0560     0.8550 C.3   1 <1>  -0.1600 
  8 C       -2.0970     0.4280    -0.3300 C.3   1 <1>  -0.1600 
  9 C       -4.0970     3.7010    -0.3420 C.2   1 <1>   0.5690 
 10 C       -3.7920    -0.3980     1.2420 C.3   1 <1>  -0.1600 
 11 C       -2.5120    -0.7960     0.4940 C.3   1 <1>  -0.1600 
 12 O       -5.2250     3.7650    -0.7560 O.2   1 <1>  -0.5700 
 13 N       -3.7270     4.5140     0.6850 N.am  1 <1>  -0.5470 
 14 C       -2.4950     4.6280     1.3350 C.ar  1 <1>   0.1170 
 15 C       -1.3700     5.2080     0.6850 C.ar  1 <1>   0.0000 
 16 C       -2.3820     4.1580     2.6210 C.ar  1 <1>  -0.1500 
 17 C       -0.1300     5.2240     1.3640 C.ar  1 <1>   0.0000 
 18 C       -1.4230     5.7780    -0.6080 C.ar  1 <1>  -0.1500 
 19 C       -1.1620     4.1990     3.2960 C.ar  1 <1>  -0.1500 
 20 C       -0.0590     4.7160     2.6750 C.ar  1 <1>  -0.1500 
 21 C        1.0010     5.7590     0.7140 C.ar  1 <1>  -0.1500 
 22 C       -0.3100     6.2960    -1.2120 C.ar  1 <1>  -0.1500 
 23 C        0.9180     6.2810    -0.5460 C.ar  1 <1>  -0.1500 
 24 H       -3.7920     3.4530    -2.9130 H     1 <1>   0.0800 
 25 H       -2.3380     2.4610    -2.9710 H     1 <1>   0.0800 
 26 H       -2.1070     3.0120    -0.7300 H     1 <1>   0.0800 
 27 H       -5.1350     1.2600     0.7870 H     1 <1>   0.0800 
 28 H       -3.6440     1.6980     1.5990 H     1 <1>   0.0800 
 29 H       -1.3670     0.9840     0.2330 H     1 <1>   0.0800 
 30 H       -1.6700     0.1540    -1.2780 H     1 <1>   0.0800 
 31 H       -4.6050    -1.0240     0.9130 H     1 <1>   0.0800 
 32 H       -3.6800    -0.5030     2.3070 H     1 <1>   0.0800 
 33 H       -1.7310    -1.0880     1.1750 H     1 <1>   0.0800 
 34 H       -2.7270    -1.6210    -0.1650 H     1 <1>   0.0800 
 35 H       -4.5000     5.0710     1.0530 H     1 <1>   0.3700 
 36 H       -3.2360     3.7400     3.1240 H     1 <1>   0.1500 
 37 H       -2.3630     5.8110    -1.1270 H     1 <1>   0.1500 
 38 H       -1.1010     3.8200     4.3020 H     1 <1>   0.1500 
 39 H        0.8870     4.7450     3.1870 H     1 <1>   0.1500 
 40 H        1.9420     5.7530     1.2350 H     1 <1>   0.1500 
 41 H       -0.3640     6.7240    -2.1980 H     1 <1>   0.1500 
 42 H        1.7860     6.6890    -1.0350 H     1 <1>   0.1500 
@<TRIPOS>BOND
  1   1   2  2   
  2   2   3  1   
  3   2   4  1   
  4   3   5  1   
  5   4   6  1   
  6   4  24  1   
  7   4  25  1   
  8   5   6  1   
  9   5   7  1   
 10   5   8  1   
 11   6   9  1   
 12   6  26  1   
 13   7  10  1   
 14   7  27  1   
 15   7  28  1   
 16   8  11  1   
 17   8  29  1   
 18   8  30  1   
 19   9  12  2   
 20   9  13  am  
 21  10  11  1   
 22  10  31  1   
 23  10  32  1   
 24  11  33  1   
 25  11  34  1   
 26  13  14  1   
 27  13  35  1   
 28  14  15  ar  
 29  14  16  ar  
 30  15  17  ar  
 31  15  18  ar  
 32  16  19  ar  
 33  16  36  1   
 34  17  20  ar  
 35  17  21  ar  
 36  18  22  ar  
 37  18  37  1   
 38  19  20  ar  
 39  19  38  1   
 40  20  39  1   
 41  21  23  ar  
 42  21  40  1   
 43  22  23  ar  
 44  22  41  1   
 45  23  42  1   
@<TRIPOS>SUBSTRUCTURE
  1 ****   6 GROUP 4 **** **** 0

# MOE 2024.06 (io_trps.svl 2023.06)
