@<TRIPOS>MOLECULE
4-Ethoxy-N-(2-ethyl-2H-tetrazol-5-yl)-benzamide
34 35 1 0 0 
SMALL
USER_CHARGES


@<TRIPOS>ATOM
  1 O        0.0660    -0.1950    -1.1330 O.2   1 <1>  -0.5700 
  2 C       -0.0570    -1.3340    -0.7300 C.2   1 <1>   0.5440 
  3 N       -1.2990    -1.8440    -0.4750 N.am  1 <1>  -0.4930 
  4 C        1.1150    -2.1540    -0.4900 C.ar  1 <1>   0.0860 
  5 C       -2.5630    -1.3100    -0.6710 C.2   1 <1>   0.5790 
  6 C        2.3190    -1.5760    -0.0830 C.ar  1 <1>  -0.1500 
  7 C        1.0990    -3.5440    -0.6510 C.ar  1 <1>  -0.1500 
  8 N       -2.8530    -0.1930    -1.3340 N.2   1 <1>  -0.2270 
  9 N       -3.5770    -1.9300    -0.2020 N.2   1 <1>  -0.7070 
 10 C        3.4420    -2.3420     0.1680 C.ar  1 <1>  -0.1500 
 11 C        2.2180    -4.3170    -0.4020 C.ar  1 <1>  -0.1500 
 12 N       -4.1230    -0.0800    -1.2850 N.2   1 <1>  -0.4180 
 13 N       -4.5480    -1.1250    -0.5990 N.pl3 1 <1>   0.5800 
 14 C        3.4030    -3.7180     0.0140 C.ar  1 <1>   0.0830 
 15 C       -5.9740    -1.3780    -0.3080 C.3   1 <1>   0.0960 
 16 O        4.5410    -4.3970     0.2810 O.3   1 <1>  -0.3630 
 17 C       -6.3700    -0.8590     1.0830 C.3   1 <1>  -0.2400 
 18 C        4.6270    -5.7960     0.1410 C.3   1 <1>   0.1200 
 19 C        6.0430    -6.2220     0.5170 C.3   1 <1>  -0.2400 
 20 H       -1.3490    -2.7270     0.0180 H     1 <1>   0.3700 
 21 H        2.3680    -0.5070     0.0370 H     1 <1>   0.1500 
 22 H        0.2000    -4.0300    -0.9870 H     1 <1>   0.1500 
 23 H        4.3590    -1.8780     0.4830 H     1 <1>   0.1500 
 24 H        2.1560    -5.3810    -0.5390 H     1 <1>   0.1500 
 25 H       -6.1450    -2.4370    -0.3690 H     1 <1>   0.0800 
 26 H       -6.5630    -0.8910    -1.0640 H     1 <1>   0.0800 
 27 H       -5.7910    -1.3530     1.8440 H     1 <1>   0.0800 
 28 H       -7.4120    -1.0560     1.2640 H     1 <1>   0.0800 
 29 H       -6.2070     0.2030     1.1450 H     1 <1>   0.0800 
 30 H        4.4130    -6.0490    -0.8830 H     1 <1>   0.0800 
 31 H        3.9070    -6.2500     0.7990 H     1 <1>   0.0800 
 32 H        6.7560    -5.7490    -0.1360 H     1 <1>   0.0800 
 33 H        6.1420    -7.2870     0.4200 H     1 <1>   0.0800 
 34 H        6.2530    -5.9480     1.5350 H     1 <1>   0.0800 
@<TRIPOS>BOND
  1   1   2  2   
  2   2   3  am  
  3   2   4  1   
  4   3   5  1   
  5   3  20  1   
  6   4   6  ar  
  7   4   7  ar  
  8   5   8  1   
  9   5   9  2   
 10   6  10  ar  
 11   6  21  1   
 12   7  11  ar  
 13   7  22  1   
 14   8  12  2   
 15   9  13  1   
 16  10  14  ar  
 17  10  23  1   
 18  11  14  ar  
 19  11  24  1   
 20  12  13  1   
 21  13  15  1   
 22  14  16  1   
 23  15  17  1   
 24  15  25  1   
 25  15  26  1   
 26  16  18  1   
 27  17  27  1   
 28  17  28  1   
 29  17  29  1   
 30  18  19  1   
 31  18  30  1   
 32  18  31  1   
 33  19  32  1   
 34  19  33  1   
 35  19  34  1   
@<TRIPOS>SUBSTRUCTURE
  1 ****   2 GROUP 4 **** **** 0

# MOE 2024.06 (io_trps.svl 2023.06)
