@<TRIPOS>MOLECULE
5-Propyl-7-pyridin-3-yl-4,7-dihydro-[1,2,4]triazolo[1,5-a]pyrimidine-6-carboxyli
43 45 1 0 0 
SMALL
USER_CHARGES


@<TRIPOS>ATOM
  1 O        0.0100    -0.2400     1.1590 O.2   1 <1>  -0.5750 
  2 C       -0.0360    -1.0500     0.2570 C.2   1 <1>   0.7010 
  3 O        0.9810    -1.1580    -0.5940 O.3   1 <1>  -0.4360 
  4 C       -1.1880    -1.8570     0.0430 C.2   1 <1>  -0.1330 
  5 C        2.0870    -0.2790    -0.5820 C.3   1 <1>   0.1110 
  6 C       -1.2720    -3.1460    -0.3840 C.2   1 <1>   0.1560 
  7 C       -2.4510    -1.0580     0.3540 C.3   1 <1>   0.7110 
  8 C        1.7160     0.9840    -1.3580 C.3   1 <1>  -0.2480 
  9 N       -2.5100    -3.7510    -0.5320 N.pl3 1 <1>  -0.6940 
 10 C       -0.0970    -4.0680    -0.7140 C.3   1 <1>  -0.0310 
 11 N       -3.6670    -1.9080     0.2850 N.pl3 1 <1>  -0.4630 
 12 C       -2.6100     0.0820    -0.6440 C.ar  1 <1>  -0.1520 
 13 C       -3.6420    -3.1380    -0.1650 C.cat 1 <1>   1.0690 
 14 C       -0.0390    -5.2790     0.2300 C.3   1 <1>  -0.1690 
 15 N       -4.9430    -1.5330     0.5990 N.2   1 <1>  -0.2680 
 16 C       -2.7320    -0.1810    -2.0030 C.ar  1 <1>   0.1510 
 17 C       -2.6290     1.3980    -0.2220 C.ar  1 <1>  -0.1590 
 18 N       -4.8700    -3.5940    -0.1650 N.pl3 1 <1>  -0.7040 
 19 C        1.1570    -6.1770    -0.0990 C.3   1 <1>  -0.2480 
 20 C       -5.6430    -2.5690     0.3130 C.2   1 <1>   0.4970 
 21 N       -2.8800     0.7330    -2.9420 N.ar  1 <1>  -0.6250 
 22 C       -2.7770     2.3660    -1.1930 C.ar  1 <1>  -0.1590 
 23 C       -2.8980     1.9860    -2.5180 C.ar  1 <1>   0.1510 
 24 H        2.9090    -0.7820    -1.0610 H     1 <1>   0.0710 
 25 H        2.3590    -0.0540     0.4360 H     1 <1>   0.0710 
 26 H       -2.3930    -0.6580     1.3530 H     1 <1>   0.0710 
 27 H        1.4340     0.7350    -2.3660 H     1 <1>   0.0710 
 28 H        2.5630     1.6440    -1.3950 H     1 <1>   0.0710 
 29 H        0.9070     1.5010    -0.8740 H     1 <1>   0.0710 
 30 H       -2.5500    -4.7180    -0.8600 H     1 <1>   0.4440 
 31 H        0.8400    -3.5510    -0.6400 H     1 <1>   0.0710 
 32 H       -0.1880    -4.4060    -1.7320 H     1 <1>   0.0710 
 33 H       -0.9370    -5.8660     0.1540 H     1 <1>   0.0710 
 34 H        0.0530    -4.9370     1.2470 H     1 <1>   0.0710 
 35 H       -2.7080    -1.1970    -2.3520 H     1 <1>   0.1410 
 36 H       -2.5280     1.6770     0.8140 H     1 <1>   0.1410 
 37 H       -5.1960    -4.5110    -0.4600 H     1 <1>   0.4440 
 38 H        1.0870    -6.5520    -1.1050 H     1 <1>   0.0710 
 39 H        1.1840    -7.0160     0.5750 H     1 <1>   0.0710 
 40 H        2.0800    -5.6330     0.0040 H     1 <1>   0.0710 
 41 H       -6.7150    -2.6430     0.4290 H     1 <1>   0.1410 
 42 H       -2.7970     3.4080    -0.9290 H     1 <1>   0.1410 
 43 H       -3.0130     2.7520    -3.2670 H     1 <1>   0.1410 
@<TRIPOS>BOND
  1   1   2  2   
  2   2   3  1   
  3   2   4  1   
  4   3   5  1   
  5   4   6  2   
  6   4   7  1   
  7   5   8  1   
  8   5  24  1   
  9   5  25  1   
 10   6   9  1   
 11   6  10  1   
 12   7  11  1   
 13   7  12  1   
 14   7  26  1   
 15   8  27  1   
 16   8  28  1   
 17   8  29  1   
 18   9  13  ar  
 19   9  30  1   
 20  10  14  1   
 21  10  31  1   
 22  10  32  1   
 23  11  13  ar  
 24  11  15  1   
 25  12  16  ar  
 26  12  17  ar  
 27  13  18  ar  
 28  14  19  1   
 29  14  33  1   
 30  14  34  1   
 31  15  20  2   
 32  16  21  ar  
 33  16  35  1   
 34  17  22  ar  
 35  17  36  1   
 36  18  20  1   
 37  18  37  1   
 38  19  38  1   
 39  19  39  1   
 40  19  40  1   
 41  20  41  1   
 42  21  23  ar  
 43  22  23  ar  
 44  22  42  1   
 45  23  43  1   
@<TRIPOS>SUBSTRUCTURE
  1 ****   4 GROUP 4 **** **** 0

# MOE 2024.06 (io_trps.svl 2023.06)
