@<TRIPOS>MOLECULE
5-(2-Chloro-phenyl)-8,8-dimethyl-5,8,9,10-tetrahydro-1H,7H-pyrimido[4,5-b]quinol
44 47 1 0 0 
SMALL
USER_CHARGES


@<TRIPOS>ATOM
  1 CL      -2.7180     2.2400     2.5340 Cl    1 <1>  -0.1770 
  2 C       -2.6730     0.9370     1.3710 C.ar  1 <1>   0.1770 
  3 C       -2.6920     1.1710    -0.0010 C.ar  1 <1>  -0.1440 
  4 C       -2.6150    -0.3450     1.8880 C.ar  1 <1>  -0.1500 
  5 C       -2.6530     0.0650    -0.8430 C.ar  1 <1>  -0.1500 
  6 C       -2.7530     2.5710    -0.6300 C.3   1 <1>   0.3400 
  7 C       -2.5760    -1.4310     1.0330 C.ar  1 <1>  -0.1500 
  8 C       -2.5960    -1.2220    -0.3340 C.ar  1 <1>  -0.1500 
  9 C       -1.5000     3.3730    -0.2880 C.2   1 <1>  -0.1240 
 10 C       -4.0420     3.3080    -0.2390 C.2   1 <1>  -0.1240 
 11 C       -1.5860     4.5270     0.4280 C.2   1 <1>   0.2090 
 12 C       -0.2330     2.9180    -0.7270 C.2   1 <1>   0.6160 
 13 C       -3.9850     4.4730     0.4600 C.2   1 <1>  -0.0380 
 14 C       -5.2670     2.7100    -0.6520 C.2   1 <1>   0.4950 
 15 N       -0.4390     5.2020     0.7660 N.am  1 <1>  -0.5390 
 16 N       -2.7890     5.0550     0.8170 N.pl3 1 <1>  -0.6000 
 17 O       -0.0590     1.9580    -1.4570 O.2   1 <1>  -0.5700 
 18 N        0.8710     3.6200    -0.3400 N.am  1 <1>  -0.4900 
 19 C       -5.2470     5.2060     0.8990 C.3   1 <1>  -0.0220 
 20 O       -5.3500     1.7760    -1.4140 O.2   1 <1>  -0.5700 
 21 C       -6.5610     3.2990    -0.1170 C.3   1 <1>  -0.0990 
 22 C        0.7930     4.7550     0.3980 C.2   1 <1>   0.6900 
 23 C       -6.4820     4.8310     0.0470 C.3   1 <1>   0.0000 
 24 O        1.7910     5.3600     0.7160 O.2   1 <1>  -0.5700 
 25 C       -7.7580     5.3370     0.7390 C.3   1 <1>  -0.2400 
 26 C       -6.3890     5.5020    -1.3370 C.3   1 <1>  -0.2400 
 27 H       -2.6010    -0.4890     2.9530 H     1 <1>   0.1500 
 28 H       -2.6680     0.1960    -1.9120 H     1 <1>   0.1500 
 29 H       -2.7690     2.4680    -1.7020 H     1 <1>   0.0800 
 30 H       -2.5320    -2.4320     1.4260 H     1 <1>   0.1500 
 31 H       -2.5660    -2.0610    -1.0070 H     1 <1>   0.1500 
 32 H       -0.4490     6.0540     1.3210 H     1 <1>   0.3700 
 33 H       -2.7940     5.9050     1.3880 H     1 <1>   0.4000 
 34 H        1.7830     3.2930    -0.6380 H     1 <1>   0.3700 
 35 H       -5.0890     6.2690     0.8420 H     1 <1>   0.0800 
 36 H       -5.4260     4.9580     1.9300 H     1 <1>   0.0800 
 37 H       -6.7600     2.8360     0.8320 H     1 <1>   0.0800 
 38 H       -7.3650     3.0400    -0.7820 H     1 <1>   0.0800 
 39 H       -7.8710     4.8860     1.7100 H     1 <1>   0.0800 
 40 H       -8.6270     5.0930     0.1530 H     1 <1>   0.0800 
 41 H       -7.7260     6.4050     0.8640 H     1 <1>   0.0800 
 42 H       -5.4960     5.2050    -1.8590 H     1 <1>   0.0800 
 43 H       -6.3740     6.5730    -1.2380 H     1 <1>   0.0800 
 44 H       -7.2360     5.2340    -1.9440 H     1 <1>   0.0800 
@<TRIPOS>BOND
  1   1   2  1   
  2   2   3  ar  
  3   2   4  ar  
  4   3   5  ar  
  5   3   6  1   
  6   4   7  ar  
  7   4  27  1   
  8   5   8  ar  
  9   5  28  1   
 10   6   9  1   
 11   6  10  1   
 12   6  29  1   
 13   7   8  ar  
 14   7  30  1   
 15   8  31  1   
 16   9  11  2   
 17   9  12  1   
 18  10  13  2   
 19  10  14  1   
 20  11  15  1   
 21  11  16  1   
 22  12  17  2   
 23  12  18  am  
 24  13  16  1   
 25  13  19  1   
 26  14  20  2   
 27  14  21  1   
 28  15  22  am  
 29  15  32  1   
 30  16  33  1   
 31  18  22  am  
 32  18  34  1   
 33  19  23  1   
 34  19  35  1   
 35  19  36  1   
 36  21  23  1   
 37  21  37  1   
 38  21  38  1   
 39  22  24  2   
 40  23  25  1   
 41  23  26  1   
 42  25  39  1   
 43  25  40  1   
 44  25  41  1   
 45  26  42  1   
 46  26  43  1   
 47  26  44  1   
@<TRIPOS>SUBSTRUCTURE
  1 ****   6 GROUP 4 **** **** 0

# MOE 2024.06 (io_trps.svl 2023.06)
