@<TRIPOS>MOLECULE
1-[2-(4-Fluoro-phenoxy)-ethyl]-piperazine
34 35 1 0 0 
SMALL
USER_CHARGES


@<TRIPOS>ATOM
  1 F        0.2170     0.7520     0.5470 F     1 <1>  -0.1900 
  2 C        1.4520     1.1110     0.3140 C.ar  1 <1>   0.1900 
  3 C        2.4630     0.5500     1.0720 C.ar  1 <1>  -0.1500 
  4 C        1.7000     2.0360    -0.6810 C.ar  1 <1>  -0.1500 
  5 C        3.7720     0.9320     0.8250 C.ar  1 <1>  -0.1500 
  6 C        3.0110     2.4120    -0.9220 C.ar  1 <1>  -0.1500 
  7 C        4.0480     1.8680    -0.1740 C.ar  1 <1>   0.0830 
  8 O        5.2980     2.2980    -0.4750 O.3   1 <1>  -0.3630 
  9 C        6.4350     1.7840     0.1920 C.3   1 <1>   0.1200 
 10 C        7.7060     2.4830    -0.3170 C.3   1 <1>   0.1100 
 11 N        7.9350     3.8320     0.2610 N.3   1 <1>  -0.8100 
 12 C        6.8770     4.8040    -0.1040 C.3   1 <1>   0.1100 
 13 C        9.2780     4.3220    -0.1080 C.3   1 <1>   0.1100 
 14 C        7.1460     6.1990     0.4940 C.3   1 <1>   0.3430 
 15 C        9.5690     5.7040     0.5090 C.3   1 <1>   0.3430 
 16 N        8.5130     6.7010     0.1360 N.4   1 <1>  -0.9060 
 17 H        2.2250    -0.1680     1.8360 H     1 <1>   0.1500 
 18 H        0.8860     2.4480    -1.2510 H     1 <1>   0.1500 
 19 H        4.5520     0.4930     1.4160 H     1 <1>   0.1500 
 20 H        3.2350     3.1270    -1.6920 H     1 <1>   0.1500 
 21 H        6.4870     0.7310    -0.0230 H     1 <1>   0.0800 
 22 H        6.3260     1.9370     1.2510 H     1 <1>   0.0800 
 23 H        7.6790     2.5300    -1.3930 H     1 <1>   0.0800 
 24 H        8.5380     1.8570    -0.0420 H     1 <1>   0.0800 
 25 H        5.9320     4.4720     0.2860 H     1 <1>   0.0800 
 26 H        6.7870     4.8700    -1.1750 H     1 <1>   0.0800 
 27 H        9.3690     4.3760    -1.1800 H     1 <1>   0.0800 
 28 H       10.0180     3.6260     0.2500 H     1 <1>   0.0800 
 29 H        7.0570     6.1260     1.5660 H     1 <1>   0.0800 
 30 H        6.3940     6.8870     0.1440 H     1 <1>   0.0800 
 31 H       10.5350     6.0480     0.1770 H     1 <1>   0.0800 
 32 H        9.6030     5.5950     1.5810 H     1 <1>   0.0800 
 33 H        8.6910     7.5980     0.6030 H     1 <1>   0.4500 
 34 H        8.5490     6.8600    -0.8770 H     1 <1>   0.4500 
@<TRIPOS>BOND
  1   1   2  1   
  2   2   3  ar  
  3   2   4  ar  
  4   3   5  ar  
  5   3  17  1   
  6   4   6  ar  
  7   4  18  1   
  8   5   7  ar  
  9   5  19  1   
 10   6   7  ar  
 11   6  20  1   
 12   7   8  1   
 13   8   9  1   
 14   9  10  1   
 15   9  21  1   
 16   9  22  1   
 17  10  11  1   
 18  10  23  1   
 19  10  24  1   
 20  11  12  1   
 21  11  13  1   
 22  12  14  1   
 23  12  25  1   
 24  12  26  1   
 25  13  15  1   
 26  13  27  1   
 27  13  28  1   
 28  14  16  1   
 29  14  29  1   
 30  14  30  1   
 31  15  16  1   
 32  15  31  1   
 33  15  32  1   
 34  16  33  1   
 35  16  34  1   
@<TRIPOS>SUBSTRUCTURE
  1 ****   8 GROUP 4 **** **** 0

# MOE 2024.06 (io_trps.svl 2023.06)
