@<TRIPOS>MOLECULE
4-(3-Furan-2-ylmethyl-4-oxo-thiazolidin-2-yl)-N-(1-methyl-butyl)-benzamide
50 52 1 0 0 
SMALL
USER_CHARGES


@<TRIPOS>ATOM
  1 S        0.4950    -0.2670    -1.4640 S.3   1 <1>  -0.4600 
  2 C        1.2440     0.4340     0.0220 C.3   1 <1>   0.5940 
  3 C        0.4540     1.2520    -2.4400 C.3   1 <1>   0.1310 
  4 N        1.3010     1.8850    -0.2500 N.am  1 <1>  -0.6600 
  5 C        2.6110    -0.2120     0.2230 C.ar  1 <1>  -0.1440 
  6 C        0.8820     2.3240    -1.4650 C.2   1 <1>   0.5690 
  7 C        1.7370     2.8100     0.8310 C.3   1 <1>   0.3200 
  8 C        3.6490     0.0020    -0.6740 C.ar  1 <1>  -0.1500 
  9 C        2.8430    -1.0130     1.3310 C.ar  1 <1>  -0.1500 
 10 O        0.8160     3.4890    -1.7730 O.2   1 <1>  -0.5700 
 11 C        3.2330     2.7130     1.0870 C.2   1 <1>  -0.0400 
 12 C        4.8920    -0.5620    -0.4590 C.ar  1 <1>  -0.1500 
 13 C        4.0900    -1.5740     1.5410 C.ar  1 <1>  -0.1500 
 14 O        4.0730     3.1420     0.1630 O.3   1 <1>  -0.2800 
 15 C        3.9120     2.2350     2.1540 C.2   1 <1>  -0.1500 
 16 C        5.1450    -1.3630     0.6540 C.ar  1 <1>   0.0860 
 17 C        5.2960     2.9430     0.6120 C.2   1 <1>  -0.0100 
 18 C        5.2680     2.3820     1.8390 C.2   1 <1>  -0.1500 
 19 C        6.4490    -1.9530     0.8930 C.2   1 <1>   0.5440 
 20 O        6.8470    -2.1380     2.0270 O.2   1 <1>  -0.5700 
 21 N        7.2440    -2.3200    -0.1560 N.am  1 <1>  -0.7300 
 22 C        8.5820    -2.9200    -0.0560 C.3   1 <1>   0.2200 
 23 C        9.5810    -1.9660    -0.7230 C.3   1 <1>  -0.1600 
 24 C        8.5200    -4.2900    -0.7290 C.3   1 <1>  -0.2400 
 25 C       11.0430    -2.4140    -0.5690 C.3   1 <1>  -0.1600 
 26 C       12.0010    -1.3740    -1.1570 C.3   1 <1>  -0.2400 
 27 H        0.5800     0.2230     0.8420 H     1 <1>   0.0800 
 28 H       -0.5480     1.4080    -2.7920 H     1 <1>   0.0800 
 29 H        1.1510     1.1550    -3.2510 H     1 <1>   0.0800 
 30 H        1.2040     2.5740     1.7340 H     1 <1>   0.0800 
 31 H        1.5020     3.8260     0.5650 H     1 <1>   0.0800 
 32 H        3.4930     0.6280    -1.5360 H     1 <1>   0.1500 
 33 H        2.0580    -1.2030     2.0420 H     1 <1>   0.1500 
 34 H        5.6810    -0.3600    -1.1600 H     1 <1>   0.1500 
 35 H        4.2620    -2.1870     2.4090 H     1 <1>   0.1500 
 36 H        3.5340     1.8130     3.0670 H     1 <1>   0.1500 
 37 H        6.1280     3.2280    -0.0070 H     1 <1>   0.1500 
 38 H        6.0910     2.0930     2.4680 H     1 <1>   0.1500 
 39 H        6.8720    -2.2570    -1.1020 H     1 <1>   0.3700 
 40 H        8.8460    -3.0430     0.9820 H     1 <1>   0.0800 
 41 H        9.4740    -0.9980    -0.2640 H     1 <1>   0.0800 
 42 H        9.3470    -1.8700    -1.7690 H     1 <1>   0.0800 
 43 H        8.3180    -4.1920    -1.7800 H     1 <1>   0.0800 
 44 H        7.7500    -4.8850    -0.2700 H     1 <1>   0.0800 
 45 H        9.4520    -4.8080    -0.6040 H     1 <1>   0.0800 
 46 H       11.2000    -3.3520    -1.0720 H     1 <1>   0.0800 
 47 H       11.2690    -2.5510     0.4760 H     1 <1>   0.0800 
 48 H       11.8070    -1.2320    -2.2050 H     1 <1>   0.0800 
 49 H       13.0190    -1.7040    -1.0400 H     1 <1>   0.0800 
 50 H       11.8890    -0.4300    -0.6520 H     1 <1>   0.0800 
@<TRIPOS>BOND
  1   1   2  1   
  2   1   3  1   
  3   2   4  1   
  4   2   5  1   
  5   2  27  1   
  6   3   6  1   
  7   3  28  1   
  8   3  29  1   
  9   4   6  am  
 10   4   7  1   
 11   5   8  ar  
 12   5   9  ar  
 13   6  10  2   
 14   7  11  1   
 15   7  30  1   
 16   7  31  1   
 17   8  12  ar  
 18   8  32  1   
 19   9  13  ar  
 20   9  33  1   
 21  11  14  1   
 22  11  15  2   
 23  12  16  ar  
 24  12  34  1   
 25  13  16  ar  
 26  13  35  1   
 27  14  17  1   
 28  15  18  1   
 29  15  36  1   
 30  16  19  1   
 31  17  18  2   
 32  17  37  1   
 33  18  38  1   
 34  19  20  2   
 35  19  21  am  
 36  21  22  1   
 37  21  39  1   
 38  22  23  1   
 39  22  24  1   
 40  22  40  1   
 41  23  25  1   
 42  23  41  1   
 43  23  42  1   
 44  24  43  1   
 45  24  44  1   
 46  24  45  1   
 47  25  26  1   
 48  25  46  1   
 49  25  47  1   
 50  26  48  1   
 51  26  49  1   
 52  26  50  1   
@<TRIPOS>SUBSTRUCTURE
  1 ****  12 GROUP 4 **** **** 0

# MOE 2024.06 (io_trps.svl 2023.06)
