@<TRIPOS>MOLECULE
2-[4-Ethyl-5-(1H-indol-3-yl)-4H-[1,2,4]triazol-3-ylsulfanyl]-N-(2-methoxy-ethyl)
46 48 1 0 0 
SMALL
USER_CHARGES


@<TRIPOS>ATOM
  1 S        0.3860     0.6980     1.4520 S.3   1 <1>  -0.2860 
  2 C       -0.4290    -0.9050     1.4500 C.2   1 <1>   0.2420 
  3 C        2.1780     0.2970     1.7460 C.3   1 <1>   0.1310 
  4 N        0.1650    -2.0070     1.7350 N.2   1 <1>  -0.3380 
  5 N       -1.7140    -1.0560     1.1400 N.pl3 1 <1>   0.0480 
  6 C        2.8390    -0.2100     0.4720 C.2   1 <1>   0.5690 
  7 N       -0.7580    -2.9610     1.6050 N.2   1 <1>  -0.3380 
  8 C       -1.8760    -2.3890     1.2480 C.2   1 <1>   0.1870 
  9 C       -2.7200    -0.0150     0.8250 C.3   1 <1>   0.0960 
 10 O        3.7350     0.4370    -0.0140 O.2   1 <1>  -0.5700 
 11 N        2.4180    -1.3810    -0.0740 N.am  1 <1>  -0.7300 
 12 C       -3.1240    -3.0660     1.0110 C.2   1 <1>  -0.0010 
 13 C       -3.4450     0.4330     2.0980 C.3   1 <1>  -0.2400 
 14 C        2.9460    -2.0100    -1.3090 C.3   1 <1>   0.1400 
 15 C       -3.8140    -3.1140    -0.2290 C.ar  1 <1>   0.0000 
 16 C       -3.8830    -3.7670     1.9000 C.2   1 <1>  -0.3020 
 17 C        3.2130    -3.4940    -1.0620 C.3   1 <1>   0.1200 
 18 C       -4.9880    -3.8280    -0.0140 C.ar  1 <1>  -0.1520 
 19 C       -3.5340    -2.6240    -1.5090 C.ar  1 <1>  -0.1500 
 20 N       -5.0120    -4.2300     1.2960 N.pl3 1 <1>   0.0330 
 21 O        3.6270    -4.0770    -2.2580 O.3   1 <1>  -0.5600 
 22 C       -5.9050    -4.0380    -1.0460 C.ar  1 <1>  -0.1500 
 23 C       -4.4360    -2.8320    -2.5280 C.ar  1 <1>  -0.1500 
 24 C        3.8890    -5.4390    -2.1550 C.3   1 <1>   0.0400 
 25 C       -5.6230    -3.5350    -2.2960 C.ar  1 <1>  -0.1500 
 26 H        2.2270    -0.4410     2.5240 H     1 <1>   0.0800 
 27 H        2.6520     1.2040     2.0720 H     1 <1>   0.0800 
 28 H       -3.4310    -0.4100     0.1230 H     1 <1>   0.0800 
 29 H       -2.2270     0.8240     0.3670 H     1 <1>   0.0800 
 30 H        1.6320    -1.8730     0.3740 H     1 <1>   0.3700 
 31 H       -3.9600    -0.3980     2.5480 H     1 <1>   0.0800 
 32 H       -4.1700     1.1890     1.8550 H     1 <1>   0.0800 
 33 H       -2.7460     0.8460     2.8040 H     1 <1>   0.0800 
 34 H        3.8590    -1.5230    -1.6070 H     1 <1>   0.0800 
 35 H        2.2180    -1.9030    -2.0940 H     1 <1>   0.0800 
 36 H       -3.6660    -3.9560     2.9360 H     1 <1>   0.1500 
 37 H        2.3130    -3.9850    -0.7350 H     1 <1>   0.0800 
 38 H        3.9950    -3.6130    -0.3310 H     1 <1>   0.0800 
 39 H       -2.6140    -2.0970    -1.6840 H     1 <1>   0.1500 
 40 H       -5.7500    -4.7960     1.7270 H     1 <1>   0.2700 
 41 H       -6.8120    -4.5860    -0.8610 H     1 <1>   0.1500 
 42 H       -4.2350    -2.4590    -3.5180 H     1 <1>   0.1500 
 43 H        4.2000    -5.7930    -3.1220 H     1 <1>   0.0800 
 44 H        2.9930    -5.9520    -1.8520 H     1 <1>   0.0800 
 45 H        4.6780    -5.5960    -1.4400 H     1 <1>   0.0800 
 46 H       -6.3130    -3.6830    -3.1090 H     1 <1>   0.1500 
@<TRIPOS>BOND
  1   1   2  1   
  2   1   3  1   
  3   2   4  2   
  4   2   5  1   
  5   3   6  1   
  6   3  26  1   
  7   3  27  1   
  8   4   7  1   
  9   5   8  1   
 10   5   9  1   
 11   6  10  2   
 12   6  11  am  
 13   7   8  2   
 14   8  12  1   
 15   9  13  1   
 16   9  28  1   
 17   9  29  1   
 18  11  14  1   
 19  11  30  1   
 20  12  15  1   
 21  12  16  2   
 22  13  31  1   
 23  13  32  1   
 24  13  33  1   
 25  14  17  1   
 26  14  34  1   
 27  14  35  1   
 28  15  18  ar  
 29  15  19  ar  
 30  16  20  1   
 31  16  36  1   
 32  17  21  1   
 33  17  37  1   
 34  17  38  1   
 35  18  20  1   
 36  18  22  ar  
 37  19  23  ar  
 38  19  39  1   
 39  20  40  1   
 40  21  24  1   
 41  22  25  ar  
 42  22  41  1   
 43  23  25  ar  
 44  23  42  1   
 45  24  43  1   
 46  24  44  1   
 47  24  45  1   
 48  25  46  1   
@<TRIPOS>SUBSTRUCTURE
  1 ****   8 GROUP 4 **** **** 0

# MOE 2024.06 (io_trps.svl 2023.06)
