@<TRIPOS>MOLECULE
3-Allyl-8-benzyl-1,6-dimethyl-5,6,7,8-tetrahydro-1H-1,3,4b,8,9-pentaaza-fluorene
51 54 1 0 0 
SMALL
USER_CHARGES


@<TRIPOS>ATOM
  1 O        2.0970     0.2280    -1.8560 O.2   1 <1>  -0.5740 
  2 C        2.8870     1.0350    -1.4080 C.2   1 <1>   0.6860 
  3 N        2.5100     2.3610    -1.2360 N.am  1 <1>  -0.4260 
  4 N        4.1700     0.6300    -1.0660 N.am  1 <1>  -0.4410 
  5 C        3.3970     3.3120    -0.7560 C.2   1 <1>   0.6990 
  6 C        1.0890     2.7380    -1.4360 C.3   1 <1>   0.2720 
  7 C        5.0280     1.5750    -0.5440 C.2   1 <1>   0.4210 
  8 C        4.6170    -0.7870    -1.2230 C.3   1 <1>   0.0520 
  9 O        3.0820     4.4880    -0.6690 O.2   1 <1>  -0.5740 
 10 C        4.7050     2.8740    -0.3780 C.2   1 <1>   0.2710 
 11 C        0.3430     2.5000    -0.1370 C.2   1 <1>  -0.2950 
 12 N        6.3030     1.3940    -0.1150 N.pl3 1 <1>  -0.7040 
 13 N        5.8450     3.4900     0.1690 N.pl3 1 <1>  -0.7670 
 14 C       -0.1320     3.4590     0.6640 C.2   1 <1>  -0.3060 
 15 C        6.7840     2.5580     0.3190 C.cat 1 <1>   1.0690 
 16 C        5.9920     4.9140     0.5280 C.3   1 <1>   0.3480 
 17 N        8.0020     2.8320     0.8440 N.pl3 1 <1>  -0.5960 
 18 C        7.4860     5.2710     0.5440 C.3   1 <1>  -0.0880 
 19 C        8.3070     4.2170     1.3100 C.3   1 <1>   0.1600 
 20 C        9.1250     1.8670     1.0910 C.3   1 <1>   0.3050 
 21 C        7.7100     6.6680     1.1440 C.3   1 <1>  -0.2470 
 22 C        8.7910     0.4510     0.6570 C.ar  1 <1>  -0.1510 
 23 C        9.0410     0.0440    -0.6460 C.ar  1 <1>  -0.1570 
 24 C        8.1800    -0.4260     1.5420 C.ar  1 <1>  -0.1570 
 25 C        8.6580    -1.2170    -1.0660 C.ar  1 <1>  -0.1570 
 26 C        7.7970    -1.6860     1.1190 C.ar  1 <1>  -0.1570 
 27 C        8.0320    -2.0800    -0.1850 C.ar  1 <1>  -0.1570 
 28 H        0.6480     2.1550    -2.2270 H     1 <1>   0.0720 
 29 H        1.0160     3.7750    -1.7190 H     1 <1>   0.0720 
 30 H        3.9100    -1.3530    -1.8050 H     1 <1>   0.0720 
 31 H        4.7100    -1.2480    -0.2550 H     1 <1>   0.0720 
 32 H        5.5680    -0.8200    -1.7240 H     1 <1>   0.0720 
 33 H        0.2290     1.4510     0.0830 H     1 <1>   0.1430 
 34 H        6.8520     0.5260    -0.0920 H     1 <1>   0.4450 
 35 H       -0.6620     3.2670     1.5820 H     1 <1>   0.1430 
 36 H       -0.0320     4.5150     0.4740 H     1 <1>   0.1430 
 37 H        5.5550     5.0800     1.4990 H     1 <1>   0.0720 
 38 H        5.4760     5.5320    -0.1890 H     1 <1>   0.0720 
 39 H        7.8360     5.2980    -0.4740 H     1 <1>   0.0720 
 40 H        9.3560     4.4260     1.1710 H     1 <1>   0.0720 
 41 H        8.0930     4.2820     2.3650 H     1 <1>   0.0720 
 42 H        9.3640     1.8660     2.1420 H     1 <1>   0.0720 
 43 H       10.0000     2.2000     0.5590 H     1 <1>   0.0720 
 44 H        7.3810     6.7070     2.1690 H     1 <1>   0.0720 
 45 H        7.1650     7.4090     0.5840 H     1 <1>   0.0720 
 46 H        8.7540     6.9290     1.1110 H     1 <1>   0.0720 
 47 H        9.5300     0.7030    -1.3450 H     1 <1>   0.1430 
 48 H        7.9920    -0.1370     2.5630 H     1 <1>   0.1430 
 49 H        8.8550    -1.5330    -2.0780 H     1 <1>   0.1430 
 50 H        7.3250    -2.3670     1.8080 H     1 <1>   0.1430 
 51 H        7.7420    -3.0650    -0.5110 H     1 <1>   0.1430 
@<TRIPOS>BOND
  1   1   2  2   
  2   2   3  am  
  3   2   4  am  
  4   3   5  am  
  5   3   6  1   
  6   4   7  1   
  7   4   8  1   
  8   5   9  2   
  9   5  10  1   
 10   6  11  1   
 11   6  28  1   
 12   6  29  1   
 13   7  10  2   
 14   7  12  1   
 15   8  30  1   
 16   8  31  1   
 17   8  32  1   
 18  10  13  1   
 19  11  14  2   
 20  11  33  1   
 21  12  15  ar  
 22  12  34  1   
 23  13  15  ar  
 24  13  16  1   
 25  14  35  1   
 26  14  36  1   
 27  15  17  ar  
 28  16  18  1   
 29  16  37  1   
 30  16  38  1   
 31  17  19  1   
 32  17  20  1   
 33  18  19  1   
 34  18  21  1   
 35  18  39  1   
 36  19  40  1   
 37  19  41  1   
 38  20  22  1   
 39  20  42  1   
 40  20  43  1   
 41  21  44  1   
 42  21  45  1   
 43  21  46  1   
 44  22  23  ar  
 45  22  24  ar  
 46  23  25  ar  
 47  23  47  1   
 48  24  26  ar  
 49  24  48  1   
 50  25  27  ar  
 51  25  49  1   
 52  26  27  ar  
 53  26  50  1   
 54  27  51  1   
@<TRIPOS>SUBSTRUCTURE
  1 ****   7 GROUP 4 **** **** 0

# MOE 2024.06 (io_trps.svl 2023.06)
