@<TRIPOS>MOLECULE
[4-(3-Ethoxy-4-fluoro-benzenesulfonyl)-piperazin-1-yl]-furan-2-yl-methanone
45 47 1 0 0 
SMALL
USER_CHARGES


@<TRIPOS>ATOM
  1 S        0.0690     0.6470    -1.2250 S.o2  1 <1>   1.4470 
  2 O       -0.2650    -0.4280    -2.1330 O.2   1 <1>  -0.6500 
  3 O        0.4300     1.9430    -1.7560 O.2   1 <1>  -0.6500 
  4 N       -1.2820     0.8820    -0.2290 N.am  1 <1>  -0.8490 
  5 C        1.3510     0.1040    -0.0600 C.ar  1 <1>  -0.0090 
  6 C       -1.8480    -0.3900     0.2570 C.3   1 <1>   0.1960 
  7 C       -2.3250     1.6560    -0.9260 C.3   1 <1>   0.1960 
  8 C        1.9380    -1.1530    -0.1790 C.ar  1 <1>  -0.1500 
  9 C        1.7610     0.9350     0.9790 C.ar  1 <1>  -0.1500 
 10 C       -3.0140    -0.1510     1.2290 C.3   1 <1>   0.1400 
 11 C       -3.5420     1.9450    -0.0270 C.3   1 <1>   0.1400 
 12 C        2.9130    -1.5880     0.7160 C.ar  1 <1>   0.0820 
 13 C        2.7290     0.5300     1.8830 C.ar  1 <1>  -0.1500 
 14 N       -4.0730     0.6930     0.5950 N.am  1 <1>  -0.6600 
 15 O        3.5080    -2.8090     0.6370 O.3   1 <1>  -0.3630 
 16 C        3.2880    -0.7230     1.7390 C.ar  1 <1>   0.1900 
 17 C       -5.3800     0.2560     0.4720 C.2   1 <1>   0.7150 
 18 C        3.2250    -3.7070    -0.4110 C.3   1 <1>   0.1200 
 19 F        4.1990    -1.0920     2.6030 F     1 <1>  -0.1900 
 20 O       -5.5880    -0.9410     0.5760 O.2   1 <1>  -0.5700 
 21 C       -6.5020     1.1400     0.2190 C.2   1 <1>   0.0550 
 22 C        4.0870    -4.9490    -0.2110 C.3   1 <1>  -0.2400 
 23 O       -6.4500     2.4540     0.4390 O.3   1 <1>  -0.2800 
 24 C       -7.7520     0.8370    -0.2320 C.2   1 <1>  -0.1500 
 25 C       -7.6140     2.9840     0.1400 C.2   1 <1>  -0.0100 
 26 C       -8.4700     2.0320    -0.2860 C.2   1 <1>  -0.1500 
 27 H       -1.0870    -0.9550     0.7690 H     1 <1>   0.0800 
 28 H       -2.2020    -0.9840    -0.5700 H     1 <1>   0.0800 
 29 H       -2.6520     1.1200    -1.8010 H     1 <1>   0.0800 
 30 H       -1.9180     2.5980    -1.2530 H     1 <1>   0.0800 
 31 H        1.6170    -1.7860    -0.9870 H     1 <1>   0.1500 
 32 H        1.3150     1.9120     1.0780 H     1 <1>   0.1500 
 33 H       -2.6440     0.3520     2.1060 H     1 <1>   0.0800 
 34 H       -3.4160    -1.0990     1.5410 H     1 <1>   0.0800 
 35 H       -4.2940     2.4190    -0.6310 H     1 <1>   0.0800 
 36 H       -3.2570     2.6320     0.7510 H     1 <1>   0.0800 
 37 H        3.0480     1.1720     2.6860 H     1 <1>   0.1500 
 38 H        3.4600    -3.2280    -1.3460 H     1 <1>   0.0800 
 39 H        2.1800    -3.9620    -0.3710 H     1 <1>   0.0800 
 40 H        5.1290    -4.6810    -0.2360 H     1 <1>   0.0800 
 41 H        3.8950    -5.6570    -0.9970 H     1 <1>   0.0800 
 42 H        3.8580    -5.4100     0.7320 H     1 <1>   0.0800 
 43 H       -8.1280    -0.1370    -0.4940 H     1 <1>   0.1500 
 44 H       -7.7540     4.0450     0.2590 H     1 <1>   0.1500 
 45 H       -9.4920     2.1390    -0.6030 H     1 <1>   0.1500 
@<TRIPOS>BOND
  1   1   2  2   
  2   1   3  2   
  3   1   4  am  
  4   1   5  1   
  5   4   6  1   
  6   4   7  1   
  7   5   8  ar  
  8   5   9  ar  
  9   6  10  1   
 10   6  27  1   
 11   6  28  1   
 12   7  11  1   
 13   7  29  1   
 14   7  30  1   
 15   8  12  ar  
 16   8  31  1   
 17   9  13  ar  
 18   9  32  1   
 19  10  14  1   
 20  10  33  1   
 21  10  34  1   
 22  11  14  1   
 23  11  35  1   
 24  11  36  1   
 25  12  15  1   
 26  12  16  ar  
 27  13  16  ar  
 28  13  37  1   
 29  14  17  am  
 30  15  18  1   
 31  16  19  1   
 32  17  20  2   
 33  17  21  1   
 34  18  22  1   
 35  18  38  1   
 36  18  39  1   
 37  21  23  1   
 38  21  24  2   
 39  22  40  1   
 40  22  41  1   
 41  22  42  1   
 42  23  25  1   
 43  24  26  1   
 44  24  43  1   
 45  25  26  2   
 46  25  44  1   
 47  26  45  1   
@<TRIPOS>SUBSTRUCTURE
  1 ****   6 GROUP 4 **** **** 0

# MOE 2024.06 (io_trps.svl 2023.06)
