@<TRIPOS>MOLECULE
2-(2-Chloro-4-cyclohexylsulfamoyl-phenoxy)-N-pyridin-3-ylmethyl-acetamide
53 55 1 0 0 
SMALL
USER_CHARGES


@<TRIPOS>ATOM
  1 CL       2.1180    -1.3600     0.4430 Cl    1 <1>  -0.1770 
  2 C        1.3870    -2.8130    -0.2040 C.ar  1 <1>   0.1770 
  3 C        2.1350    -3.6770    -0.9930 C.ar  1 <1>   0.0820 
  4 C        0.0630    -3.0720     0.0920 C.ar  1 <1>  -0.1500 
  5 O        3.4290    -3.3590    -1.2370 O.3   1 <1>  -0.3630 
  6 C        1.5200    -4.8220    -1.4900 C.ar  1 <1>  -0.1500 
  7 C       -0.5600    -4.2120    -0.4000 C.ar  1 <1>  -0.0090 
  8 C        4.2960    -4.2140    -1.9710 C.3   1 <1>   0.1810 
  9 C        0.1910    -5.0770    -1.1910 C.ar  1 <1>  -0.1500 
 10 S       -2.2950    -4.5540    -0.0070 S.o2  1 <1>   1.4470 
 11 C        5.7070    -3.6410    -2.0140 C.2   1 <1>   0.5690 
 12 O       -2.4230    -4.7050     1.4230 O.2   1 <1>  -0.6500 
 13 O       -2.8010    -5.5670    -0.9040 O.2   1 <1>  -0.6500 
 14 N       -3.0610    -3.1480    -0.5140 N.am  1 <1>  -0.9140 
 15 O        6.5420    -4.2010    -2.6820 O.2   1 <1>  -0.5700 
 16 N        5.9930    -2.5250    -1.2980 N.am  1 <1>  -0.7300 
 17 C       -4.3110    -2.7460     0.1160 C.3   1 <1>   0.2760 
 18 C        7.3170    -1.8920    -1.1840 C.3   1 <1>   0.2840 
 19 C       -4.0800    -2.0540     1.4650 C.3   1 <1>  -0.1600 
 20 C       -5.3430    -3.8800     0.2160 C.3   1 <1>  -0.1600 
 21 C        7.6320    -1.7060     0.2860 C.ar  1 <1>  -0.1430 
 22 C       -5.4070    -1.5350     2.0410 C.3   1 <1>  -0.1600 
 23 C       -6.6670    -3.3550     0.7910 C.3   1 <1>  -0.1600 
 24 C        8.1850    -2.7490     1.0140 C.ar  1 <1>   0.1600 
 25 C        7.3720    -0.5100     0.9260 C.ar  1 <1>  -0.1500 
 26 C       -6.4450    -2.6620     2.1440 C.3   1 <1>  -0.1600 
 27 N        8.5020    -2.6930     2.2980 N.ar  1 <1>  -0.6200 
 28 C        7.6930    -0.4360     2.2650 C.ar  1 <1>  -0.1500 
 29 C        8.2480    -1.5390     2.8920 C.ar  1 <1>   0.1600 
 30 H       -0.4860    -2.3820     0.7090 H     1 <1>   0.1500 
 31 H        2.0520    -5.5230    -2.1070 H     1 <1>   0.1500 
 32 H        3.9180    -4.3070    -2.9720 H     1 <1>   0.0800 
 33 H        4.3190    -5.1740    -1.4900 H     1 <1>   0.0800 
 34 H       -0.2750    -5.9680    -1.5810 H     1 <1>   0.1500 
 35 H       -3.3000    -3.3700    -1.4780 H     1 <1>   0.4200 
 36 H        5.2500    -2.1170    -0.7210 H     1 <1>   0.3700 
 37 H       -4.7410    -1.9960    -0.5290 H     1 <1>   0.0800 
 38 H        7.3020    -0.9420    -1.6880 H     1 <1>   0.0800 
 39 H        8.0670    -2.5100    -1.6500 H     1 <1>   0.0800 
 40 H       -3.4010    -1.2300     1.3340 H     1 <1>   0.0800 
 41 H       -3.6520    -2.7370     2.1740 H     1 <1>   0.0800 
 42 H       -4.9850    -4.6570     0.8680 H     1 <1>   0.0800 
 43 H       -5.5210    -4.3040    -0.7570 H     1 <1>   0.0800 
 44 H       -5.7910    -0.7520     1.4100 H     1 <1>   0.0800 
 45 H       -5.2340    -1.1150     3.0170 H     1 <1>   0.0800 
 46 H       -7.3540    -4.1740     0.9160 H     1 <1>   0.0800 
 47 H       -7.1090    -2.6570     0.1010 H     1 <1>   0.0800 
 48 H        8.3760    -3.6820     0.5110 H     1 <1>   0.1500 
 49 H        6.9380     0.3290     0.4110 H     1 <1>   0.1500 
 50 H       -7.3780    -2.2600     2.5000 H     1 <1>   0.0800 
 51 H       -6.1060    -3.3890     2.8630 H     1 <1>   0.0800 
 52 H        7.5150     0.4660     2.8210 H     1 <1>   0.1500 
 53 H        8.4940    -1.4680     3.9380 H     1 <1>   0.1500 
@<TRIPOS>BOND
  1   1   2  1   
  2   2   3  ar  
  3   2   4  ar  
  4   3   5  1   
  5   3   6  ar  
  6   4   7  ar  
  7   4  30  1   
  8   5   8  1   
  9   6   9  ar  
 10   6  31  1   
 11   7   9  ar  
 12   7  10  1   
 13   8  11  1   
 14   8  32  1   
 15   8  33  1   
 16   9  34  1   
 17  10  12  2   
 18  10  13  2   
 19  10  14  am  
 20  11  15  2   
 21  11  16  am  
 22  14  17  1   
 23  14  35  1   
 24  16  18  1   
 25  16  36  1   
 26  17  19  1   
 27  17  20  1   
 28  17  37  1   
 29  18  21  1   
 30  18  38  1   
 31  18  39  1   
 32  19  22  1   
 33  19  40  1   
 34  19  41  1   
 35  20  23  1   
 36  20  42  1   
 37  20  43  1   
 38  21  24  ar  
 39  21  25  ar  
 40  22  26  1   
 41  22  44  1   
 42  22  45  1   
 43  23  26  1   
 44  23  46  1   
 45  23  47  1   
 46  24  27  ar  
 47  24  48  1   
 48  25  28  ar  
 49  25  49  1   
 50  26  50  1   
 51  26  51  1   
 52  27  29  ar  
 53  28  29  ar  
 54  28  52  1   
 55  29  53  1   
@<TRIPOS>SUBSTRUCTURE
  1 ****   2 GROUP 4 **** **** 0

# MOE 2024.06 (io_trps.svl 2023.06)
