@<TRIPOS>MOLECULE
N'-(2,5-Dimethyl-3-phenyl-pyrazolo[1,5-a]pyrimidin-7-yl)-N,N-dimethyl-ethane-1,2
48 50 1 0 0 
SMALL
USER_CHARGES


@<TRIPOS>ATOM
  1 N       -0.1490    -0.0330    -0.2030 N.pl3 1 <1>  -0.5840 
  2 C        1.0520     0.5650    -0.3580 C.2   1 <1>  -0.0380 
  3 C       -0.2670    -1.4190    -0.2410 C.2   1 <1>  -0.0680 
  4 C        2.1800    -0.2000    -0.5560 C.2   1 <1>  -0.1360 
  5 C        1.0810     2.0800    -0.3060 C.3   1 <1>  -0.1020 
  6 N        0.8530    -2.1640    -0.4510 N.pl3 1 <1>   0.5610 
  7 C       -1.3050    -2.2880    -0.1130 C.2   1 <1>  -0.0540 
  8 C        2.1040    -1.6040    -0.6050 C.cat 1 <1>   0.3950 
  9 N        0.5760    -3.4960    -0.4530 N.2   1 <1>  -0.7070 
 10 C       -2.6920    -1.9770     0.1170 C.ar  1 <1>   0.0540 
 11 C       -0.7060    -3.5510    -0.2530 C.2   1 <1>   0.1080 
 12 N        3.1170    -2.4760    -0.7790 N.pl3 1 <1>  -0.1460 
 13 C       -3.0810    -1.2560     1.2430 C.ar  1 <1>  -0.1500 
 14 C       -3.6810    -2.3790    -0.7770 C.ar  1 <1>  -0.1500 
 15 C       -1.4540    -4.8660    -0.1720 C.3   1 <1>  -0.0590 
 16 C        4.5780    -2.2360    -0.9650 C.3   1 <1>   0.1860 
 17 C       -4.4100    -0.9480     1.4700 C.ar  1 <1>  -0.1500 
 18 C       -5.0110    -2.0740    -0.5550 C.ar  1 <1>  -0.1500 
 19 C        5.3970    -2.7570     0.2410 C.3   1 <1>   0.3430 
 20 C       -5.3780    -1.3570     0.5700 C.ar  1 <1>  -0.1500 
 21 N        6.8900    -2.6610     0.0540 N.4   1 <1>  -0.9590 
 22 C        7.5940    -3.3750     1.1740 C.3   1 <1>   0.2630 
 23 C        7.4100    -1.2520    -0.0150 C.3   1 <1>   0.2630 
 24 H       -1.0120     0.5200    -0.0670 H     1 <1>   0.4000 
 25 H        3.1230     0.2980    -0.6790 H     1 <1>   0.1500 
 26 H        0.4570     2.4860    -1.0830 H     1 <1>   0.0800 
 27 H        2.0780     2.4570    -0.4410 H     1 <1>   0.0800 
 28 H        0.7120     2.4240     0.6440 H     1 <1>   0.0800 
 29 H        2.8090    -3.4660    -0.8260 H     1 <1>   0.4000 
 30 H       -2.3340    -0.9390     1.9490 H     1 <1>   0.1500 
 31 H       -3.4040    -2.9310    -1.6570 H     1 <1>   0.1500 
 32 H       -2.2670    -4.7910     0.5280 H     1 <1>   0.0800 
 33 H       -0.7940    -5.6490     0.1540 H     1 <1>   0.0800 
 34 H       -1.8460    -5.1220    -1.1380 H     1 <1>   0.0800 
 35 H        4.7550    -1.1840    -1.0950 H     1 <1>   0.0800 
 36 H        4.8910    -2.7470    -1.8600 H     1 <1>   0.0800 
 37 H       -4.6940    -0.3910     2.3470 H     1 <1>   0.1500 
 38 H       -5.7630    -2.3920    -1.2560 H     1 <1>   0.1500 
 39 H        5.1430    -3.7930     0.4060 H     1 <1>   0.0800 
 40 H        5.1200    -2.2040     1.1240 H     1 <1>   0.0800 
 41 H       -6.4130    -1.1190     0.7450 H     1 <1>   0.1500 
 42 H        7.1750    -3.1470    -0.8150 H     1 <1>   0.4500 
 43 H        7.3690    -2.9110     2.1210 H     1 <1>   0.0800 
 44 H        8.6630    -3.3440     1.0270 H     1 <1>   0.0800 
 45 H        7.2900    -4.4090     1.2170 H     1 <1>   0.0800 
 46 H        7.1650    -0.7130     0.8870 H     1 <1>   0.0800 
 47 H        6.9910    -0.7280    -0.8590 H     1 <1>   0.0800 
 48 H        8.4840    -1.2560    -0.1240 H     1 <1>   0.0800 
@<TRIPOS>BOND
  1   1   2  1   
  2   1   3  1   
  3   1  24  1   
  4   2   4  2   
  5   2   5  1   
  6   3   6  1   
  7   3   7  2   
  8   4   8  1   
  9   4  25  1   
 10   5  26  1   
 11   5  27  1   
 12   5  28  1   
 13   6   8  ar  
 14   6   9  1   
 15   7  10  1   
 16   7  11  1   
 17   8  12  ar  
 18   9  11  2   
 19  10  13  ar  
 20  10  14  ar  
 21  11  15  1   
 22  12  16  1   
 23  12  29  1   
 24  13  17  ar  
 25  13  30  1   
 26  14  18  ar  
 27  14  31  1   
 28  15  32  1   
 29  15  33  1   
 30  15  34  1   
 31  16  19  1   
 32  16  35  1   
 33  16  36  1   
 34  17  20  ar  
 35  17  37  1   
 36  18  20  ar  
 37  18  38  1   
 38  19  21  1   
 39  19  39  1   
 40  19  40  1   
 41  20  41  1   
 42  21  22  1   
 43  21  23  1   
 44  21  42  1   
 45  22  43  1   
 46  22  44  1   
 47  22  45  1   
 48  23  46  1   
 49  23  47  1   
 50  23  48  1   
@<TRIPOS>SUBSTRUCTURE
  1 ****   6 GROUP 4 **** **** 0

# MOE 2024.06 (io_trps.svl 2023.06)
