@<TRIPOS>MOLECULE
1-Methyl-4-(5-methyl-thiophen-2-yl)-1,4-dihydro-pyridine-3,5-dicarboxylic acid d
44 45 1 0 0 
SMALL
USER_CHARGES


@<TRIPOS>ATOM
  1 S        0.9430     0.7010     0.8180 S.3   1 <1>  -0.0800 
  2 C        1.0780    -0.8400    -0.0160 C.2   1 <1>  -0.1400 
  3 C        0.8910     1.5730    -0.7050 C.2   1 <1>  -0.1400 
  4 C        1.0800    -0.6520    -1.3490 C.2   1 <1>  -0.1500 
  5 C        1.1700    -2.1070     0.8260 C.3   1 <1>   0.3760 
  6 C        0.9740     0.7200    -1.7410 C.2   1 <1>  -0.1500 
  7 C        0.7690     3.0800    -0.6300 C.3   1 <1>  -0.0600 
  8 C        2.5080    -2.7840     0.5160 C.2   1 <1>  -0.1240 
  9 C       -0.0330    -2.9900     0.4840 C.2   1 <1>  -0.1240 
 10 C        3.6630    -2.1360     1.0480 C.2   1 <1>   0.7060 
 11 C        2.5300    -3.9140    -0.2330 C.2   1 <1>  -0.0500 
 12 C       -1.2910    -2.5380     0.9840 C.2   1 <1>   0.7060 
 13 C        0.1460    -4.1080    -0.2640 C.2   1 <1>  -0.0500 
 14 O        3.6260    -1.2470     1.8760 O.2   1 <1>  -0.5700 
 15 O        4.8590    -2.5590     0.6210 O.3   1 <1>  -0.4300 
 16 N        1.3870    -4.5390    -0.6920 N.pl3 1 <1>  -0.5690 
 17 O       -1.4190    -1.6550     1.8110 O.2   1 <1>  -0.5700 
 18 O       -2.3910    -3.1470     0.5270 O.3   1 <1>  -0.4300 
 19 C        6.0530    -1.9730     1.0870 C.3   1 <1>   0.1200 
 20 C        1.4960    -5.7500    -1.5410 C.3   1 <1>   0.1290 
 21 C       -3.6760    -2.7610     0.9620 C.3   1 <1>   0.1200 
 22 C        7.2220    -2.6730     0.4030 C.3   1 <1>  -0.2400 
 23 C       -4.6990    -3.6400     0.2500 C.3   1 <1>  -0.2400 
 24 H        1.1520    -1.4350    -2.0850 H     1 <1>   0.1500 
 25 H        1.1360    -1.8600     1.8740 H     1 <1>   0.0800 
 26 H        0.9650     0.9950    -2.7810 H     1 <1>   0.1500 
 27 H       -0.1370     3.3460    -0.1170 H     1 <1>   0.0800 
 28 H        0.7470     3.5000    -1.6190 H     1 <1>   0.0800 
 29 H        1.6070     3.4870    -0.0940 H     1 <1>   0.0800 
 30 H        3.4660    -4.3840    -0.4930 H     1 <1>   0.1500 
 31 H       -0.6950    -4.7210    -0.5460 H     1 <1>   0.1500 
 32 H        6.0990    -2.0960     2.1570 H     1 <1>   0.0800 
 33 H        6.0340    -0.9230     0.8450 H     1 <1>   0.0800 
 34 H        2.3760    -5.6890    -2.1560 H     1 <1>   0.0800 
 35 H        0.6330    -5.8300    -2.1790 H     1 <1>   0.0800 
 36 H        1.5590    -6.6230    -0.9150 H     1 <1>   0.0800 
 37 H       -3.8200    -1.7220     0.7180 H     1 <1>   0.0800 
 38 H       -3.7290    -2.8930     2.0300 H     1 <1>   0.0800 
 39 H        7.2210    -3.7200     0.6470 H     1 <1>   0.0800 
 40 H        8.1480    -2.2440     0.7410 H     1 <1>   0.0800 
 41 H        7.1560    -2.5490    -0.6630 H     1 <1>   0.0800 
 42 H       -4.6260    -3.5050    -0.8150 H     1 <1>   0.0800 
 43 H       -5.6910    -3.3660     0.5620 H     1 <1>   0.0800 
 44 H       -4.5360    -4.6740     0.4950 H     1 <1>   0.0800 
@<TRIPOS>BOND
  1   1   2  1   
  2   1   3  1   
  3   2   4  2   
  4   2   5  1   
  5   3   6  2   
  6   3   7  1   
  7   4   6  1   
  8   4  24  1   
  9   5   8  1   
 10   5   9  1   
 11   5  25  1   
 12   6  26  1   
 13   7  27  1   
 14   7  28  1   
 15   7  29  1   
 16   8  10  1   
 17   8  11  2   
 18   9  12  1   
 19   9  13  2   
 20  10  14  2   
 21  10  15  1   
 22  11  16  1   
 23  11  30  1   
 24  12  17  2   
 25  12  18  1   
 26  13  16  1   
 27  13  31  1   
 28  15  19  1   
 29  16  20  1   
 30  18  21  1   
 31  19  22  1   
 32  19  32  1   
 33  19  33  1   
 34  20  34  1   
 35  20  35  1   
 36  20  36  1   
 37  21  23  1   
 38  21  37  1   
 39  21  38  1   
 40  22  39  1   
 41  22  40  1   
 42  22  41  1   
 43  23  42  1   
 44  23  43  1   
 45  23  44  1   
@<TRIPOS>SUBSTRUCTURE
  1 ****   5 GROUP 4 **** **** 0

# MOE 2024.06 (io_trps.svl 2023.06)
