@<TRIPOS>MOLECULE
8-(3-Chloro-4-methoxy-phenyl)-1,7-dimethyl-3-propyl-1H,8H-imidazo[2,1-f]purine-2
49 52 1 0 0 
SMALL
USER_CHARGES


@<TRIPOS>ATOM
  1 CL      -1.5380    -1.5200     2.4610 Cl    1 <1>  -0.1840 
  2 C       -2.4590    -1.3660     0.9820 C.ar  1 <1>   0.1700 
  3 C       -2.1350    -2.1120    -0.1470 C.ar  1 <1>   0.0750 
  4 C       -3.5270    -0.4910     0.9720 C.ar  1 <1>  -0.1570 
  5 O       -1.1110    -2.9920    -0.1600 O.3   1 <1>  -0.3690 
  6 C       -2.9020    -1.9750    -1.2930 C.ar  1 <1>  -0.1570 
  7 C       -4.2950    -0.3580    -0.1750 C.ar  1 <1>   0.3050 
  8 C        0.1840    -2.4530    -0.3040 C.3   1 <1>   0.0320 
  9 C       -3.9740    -1.0990    -1.3060 C.ar  1 <1>  -0.1570 
 10 N       -5.3980     0.5110    -0.1880 N.pl3 1 <1>  -0.5550 
 11 C       -6.6720     0.1920     0.0770 C.cat 1 <1>   1.0690 
 12 C       -5.4150     1.8740    -0.4660 C.2   1 <1>   0.1570 
 13 N       -7.3500    -0.9120     0.4110 N.pl3 1 <1>  -0.7040 
 14 N       -7.4740     1.2430    -0.0150 N.pl3 1 <1>  -0.6330 
 15 C       -6.6860     2.3230    -0.3620 C.2   1 <1>   0.2220 
 16 C       -4.1490     2.6320    -0.8210 C.3   1 <1>  -0.1100 
 17 C       -8.6580    -0.5350     0.5370 C.2   1 <1>   0.4200 
 18 C       -8.7690     0.7910     0.2780 C.2   1 <1>   0.2700 
 19 N       -9.7390    -1.3260     0.8700 N.am  1 <1>  -0.4420 
 20 C      -10.0480     1.4180     0.3410 C.2   1 <1>   0.6990 
 21 C      -11.0000    -0.7370     0.9070 C.2   1 <1>   0.6860 
 22 C       -9.5750    -2.7840     1.1550 C.3   1 <1>   0.0520 
 23 O      -10.1680     2.6130     0.1270 O.2   1 <1>  -0.5750 
 24 N      -11.1430     0.6240     0.6510 N.am  1 <1>  -0.4260 
 25 O      -11.9710    -1.4200     1.1580 O.2   1 <1>  -0.5750 
 26 C      -12.5060     1.2350     0.6790 C.3   1 <1>   0.1330 
 27 C      -13.1410     1.1660    -0.7130 C.3   1 <1>  -0.1670 
 28 C      -14.5420     1.7870    -0.7110 C.3   1 <1>  -0.2470 
 29 H       -3.7510     0.0760     1.8570 H     1 <1>   0.1430 
 30 H       -2.6510    -2.5570    -2.1640 H     1 <1>   0.1430 
 31 H        0.8860    -3.2680    -0.3270 H     1 <1>   0.0720 
 32 H        0.3980    -1.8110     0.5310 H     1 <1>   0.0720 
 33 H        0.2320    -1.9010    -1.2260 H     1 <1>   0.0720 
 34 H       -4.5580    -0.9930    -2.2030 H     1 <1>   0.1430 
 35 H       -6.9440    -1.8380     0.5340 H     1 <1>   0.4450 
 36 H       -7.0900     3.3150    -0.5040 H     1 <1>   0.1430 
 37 H       -3.7000     2.2140    -1.7050 H     1 <1>   0.0720 
 38 H       -3.4420     2.5730    -0.0130 H     1 <1>   0.0720 
 39 H       -4.3700     3.6680    -1.0070 H     1 <1>   0.0720 
 40 H       -8.6420    -2.9690     1.6560 H     1 <1>   0.0720 
 41 H       -9.6060    -3.3390     0.2330 H     1 <1>   0.0720 
 42 H      -10.3700    -3.1350     1.7930 H     1 <1>   0.0720 
 43 H      -12.4420     2.2620     1.0000 H     1 <1>   0.0720 
 44 H      -13.1280     0.7150     1.3880 H     1 <1>   0.0720 
 45 H      -13.2190     0.1380    -1.0240 H     1 <1>   0.0720 
 46 H      -12.5280     1.6980    -1.4200 H     1 <1>   0.0720 
 47 H      -15.1860     1.2620    -0.0270 H     1 <1>   0.0720 
 48 H      -14.9710     1.7270    -1.6960 H     1 <1>   0.0720 
 49 H      -14.4960     2.8220    -0.4210 H     1 <1>   0.0720 
@<TRIPOS>BOND
  1   1   2  1   
  2   2   3  ar  
  3   2   4  ar  
  4   3   5  1   
  5   3   6  ar  
  6   4   7  ar  
  7   4  29  1   
  8   5   8  1   
  9   6   9  ar  
 10   6  30  1   
 11   7   9  ar  
 12   7  10  1   
 13   8  31  1   
 14   8  32  1   
 15   8  33  1   
 16   9  34  1   
 17  10  11  ar  
 18  10  12  1   
 19  11  13  ar  
 20  11  14  ar  
 21  12  15  2   
 22  12  16  1   
 23  13  17  1   
 24  13  35  1   
 25  14  15  1   
 26  14  18  1   
 27  15  36  1   
 28  16  37  1   
 29  16  38  1   
 30  16  39  1   
 31  17  18  2   
 32  17  19  1   
 33  18  20  1   
 34  19  21  am  
 35  19  22  1   
 36  20  23  2   
 37  20  24  am  
 38  21  24  am  
 39  21  25  2   
 40  22  40  1   
 41  22  41  1   
 42  22  42  1   
 43  24  26  1   
 44  26  27  1   
 45  26  43  1   
 46  26  44  1   
 47  27  28  1   
 48  27  45  1   
 49  27  46  1   
 50  28  47  1   
 51  28  48  1   
 52  28  49  1   
@<TRIPOS>SUBSTRUCTURE
  1 ****  11 GROUP 4 **** **** 0

# MOE 2024.06 (io_trps.svl 2023.06)
