@<TRIPOS>MOLECULE
Furan-2-carboxylic acid [2-(4-isobutyryl-piperazin-1-yl)-phenyl]-amide
48 50 1 0 0 
SMALL
USER_CHARGES


@<TRIPOS>ATOM
  1 O       -0.2120     0.2130    -0.3170 O.2   1 <1>  -0.5700 
  2 C       -0.2100    -0.9890    -0.5140 C.2   1 <1>   0.7150 
  3 N        0.9020    -1.7400    -0.2490 N.am  1 <1>  -0.5470 
  4 C       -1.3840    -1.6510    -1.0320 C.2   1 <1>   0.0550 
  5 C        2.1930    -1.4830     0.2370 C.ar  1 <1>   0.1170 
  6 O       -1.3920    -2.9650    -1.2500 O.3   1 <1>  -0.2800 
  7 C       -2.6040    -1.1520    -1.3770 C.2   1 <1>  -0.1500 
  8 C        3.0490    -2.5890     0.3480 C.ar  1 <1>   0.1000 
  9 C        2.6520    -0.2240     0.6030 C.ar  1 <1>  -0.1500 
 10 C       -2.5710    -3.3090    -1.7190 C.2   1 <1>  -0.0100 
 11 C       -3.3720    -2.2280    -1.8220 C.2   1 <1>  -0.1500 
 12 N        2.5910    -3.8690    -0.0160 N.pl3 1 <1>  -0.8380 
 13 C        4.3410    -2.4010     0.8190 C.ar  1 <1>  -0.1500 
 14 C        3.9440    -0.0530     1.0720 C.ar  1 <1>  -0.1500 
 15 C        2.3300    -4.8570     1.0760 C.3   1 <1>   0.2090 
 16 C        3.0970    -4.4550    -1.2990 C.3   1 <1>   0.2090 
 17 C        4.7890    -1.1430     1.1800 C.ar  1 <1>  -0.1500 
 18 C        3.4740    -5.8740     1.2520 C.3   1 <1>   0.1400 
 19 C        4.2370    -5.4630    -1.0760 C.3   1 <1>   0.1400 
 20 N        3.8600    -6.4910    -0.0560 N.am  1 <1>  -0.6600 
 21 C        3.7330    -7.8160    -0.4010 C.2   1 <1>   0.5690 
 22 O        3.8690    -8.1700    -1.5500 O.2   1 <1>  -0.5700 
 23 C        3.3990    -8.8890     0.6520 C.3   1 <1>  -0.0190 
 24 C        3.9940   -10.2670     0.3090 C.3   1 <1>  -0.2400 
 25 C        1.8790    -9.0240     0.8430 C.3   1 <1>  -0.2400 
 26 H        0.7950    -2.7370    -0.4530 H     1 <1>   0.3700 
 27 H       -2.9240    -0.1250    -1.3210 H     1 <1>   0.1500 
 28 H        2.0090     0.6320     0.5250 H     1 <1>   0.1500 
 29 H       -2.7600    -4.3420    -1.9560 H     1 <1>   0.1500 
 30 H       -4.3890    -2.1740    -2.1700 H     1 <1>   0.1500 
 31 H        5.0010    -3.2430     0.9020 H     1 <1>   0.1500 
 32 H        4.2860     0.9280     1.3520 H     1 <1>   0.1500 
 33 H        1.4230    -5.3890     0.8490 H     1 <1>   0.0800 
 34 H        2.1760    -4.3310     2.0030 H     1 <1>   0.0800 
 35 H        3.4430    -3.6650    -1.9430 H     1 <1>   0.0800 
 36 H        2.2860    -4.9540    -1.7990 H     1 <1>   0.0800 
 37 H        5.7930    -1.0100     1.5430 H     1 <1>   0.1500 
 38 H        3.1620    -6.6150     1.9610 H     1 <1>   0.0800 
 39 H        4.3290    -5.3700     1.6660 H     1 <1>   0.0800 
 40 H        5.1130    -4.9380    -0.7400 H     1 <1>   0.0800 
 41 H        4.4810    -5.9260    -2.0150 H     1 <1>   0.0800 
 42 H        3.8430    -8.5950     1.5840 H     1 <1>   0.0800 
 43 H        3.5680   -10.6450    -0.6050 H     1 <1>   0.0800 
 44 H        3.8000   -10.9720     1.0970 H     1 <1>   0.0800 
 45 H        5.0590   -10.1860     0.1760 H     1 <1>   0.0800 
 46 H        1.4220    -9.3530    -0.0750 H     1 <1>   0.0800 
 47 H        1.4440    -8.0800     1.1160 H     1 <1>   0.0800 
 48 H        1.6580    -9.7410     1.6140 H     1 <1>   0.0800 
@<TRIPOS>BOND
  1   1   2  2   
  2   2   3  am  
  3   2   4  1   
  4   3   5  1   
  5   3  26  1   
  6   4   6  1   
  7   4   7  2   
  8   5   8  ar  
  9   5   9  ar  
 10   6  10  1   
 11   7  11  1   
 12   7  27  1   
 13   8  12  1   
 14   8  13  ar  
 15   9  14  ar  
 16   9  28  1   
 17  10  11  2   
 18  10  29  1   
 19  11  30  1   
 20  12  15  1   
 21  12  16  1   
 22  13  17  ar  
 23  13  31  1   
 24  14  17  ar  
 25  14  32  1   
 26  15  18  1   
 27  15  33  1   
 28  15  34  1   
 29  16  19  1   
 30  16  35  1   
 31  16  36  1   
 32  17  37  1   
 33  18  20  1   
 34  18  38  1   
 35  18  39  1   
 36  19  20  1   
 37  19  40  1   
 38  19  41  1   
 39  20  21  am  
 40  21  22  2   
 41  21  23  1   
 42  23  24  1   
 43  23  25  1   
 44  23  42  1   
 45  24  43  1   
 46  24  44  1   
 47  24  45  1   
 48  25  46  1   
 49  25  47  1   
 50  25  48  1   
@<TRIPOS>SUBSTRUCTURE
  1 ****  12 GROUP 4 **** **** 0

# MOE 2024.06 (io_trps.svl 2023.06)
