@<TRIPOS>MOLECULE
4-Ethoxy-3-hydroxymethyl-benzaldehyde
25 25 1 0 0 
SMALL
USER_CHARGES


@<TRIPOS>ATOM
  1 O       -0.4080     0.4240     0.9240 O.2   1 <1>  -0.5700 
  2 C       -0.7130     1.5710     0.7110 C.2   1 <1>   0.4240 
  3 C       -2.0200     2.0220     0.3080 C.ar  1 <1>   0.0860 
  4 C       -3.0680     1.1220     0.1000 C.ar  1 <1>  -0.1500 
  5 C       -2.2850     3.3780     0.1100 C.ar  1 <1>  -0.1500 
  6 C       -4.3310     1.5410    -0.2830 C.ar  1 <1>  -0.1440 
  7 C       -3.5380     3.8130    -0.2730 C.ar  1 <1>  -0.1500 
  8 C       -4.5640     2.9010    -0.4630 C.ar  1 <1>   0.0830 
  9 C       -5.4310     0.5160    -0.5070 C.3   1 <1>   0.2640 
 10 O       -5.7690     3.3570    -0.8410 O.3   1 <1>  -0.3630 
 11 O       -5.9500     0.1700     0.7270 O.3   1 <1>  -0.6800 
 12 C       -6.7040     3.6010     0.1840 C.3   1 <1>   0.1200 
 13 C       -7.9980     4.0870    -0.4610 C.3   1 <1>  -0.2400 
 14 H        0.0460     2.3220     0.8310 H     1 <1>   0.0600 
 15 H       -2.8720     0.0710     0.2410 H     1 <1>   0.1500 
 16 H       -1.5000     4.1010     0.2550 H     1 <1>   0.1500 
 17 H       -3.7340     4.8590    -0.4300 H     1 <1>   0.1500 
 18 H       -5.0380    -0.3720    -0.9700 H     1 <1>   0.0800 
 19 H       -6.2300     0.9050    -1.1150 H     1 <1>   0.0800 
 20 H       -5.2160     0.0460     1.3580 H     1 <1>   0.4000 
 21 H       -6.2970     4.3470     0.8440 H     1 <1>   0.0800 
 22 H       -6.8670     2.6860     0.7270 H     1 <1>   0.0800 
 23 H       -7.8190     4.9930    -1.0120 H     1 <1>   0.0800 
 24 H       -8.7310     4.2840     0.2990 H     1 <1>   0.0800 
 25 H       -8.3840     3.3330    -1.1230 H     1 <1>   0.0800 
@<TRIPOS>BOND
  1   1   2  2   
  2   2   3  1   
  3   2  14  1   
  4   3   4  ar  
  5   3   5  ar  
  6   4   6  ar  
  7   4  15  1   
  8   5   7  ar  
  9   5  16  1   
 10   6   8  ar  
 11   6   9  1   
 12   7   8  ar  
 13   7  17  1   
 14   8  10  1   
 15   9  11  1   
 16   9  18  1   
 17   9  19  1   
 18  10  12  1   
 19  11  20  1   
 20  12  13  1   
 21  12  21  1   
 22  12  22  1   
 23  13  23  1   
 24  13  24  1   
 25  13  25  1   
@<TRIPOS>SUBSTRUCTURE
  1 ****   6 GROUP 4 **** **** 0

# MOE 2024.06 (io_trps.svl 2023.06)
