@<TRIPOS>MOLECULE
Adamantane-1-carboxylic acid quinolin-8-ylamide
45 49 1 0 0 
SMALL
USER_CHARGES


@<TRIPOS>ATOM
  1 O        0.7170    -3.2440     0.1910 O.2   1 <1>  -0.5700 
  2 C        0.1550    -2.1860     0.0310 C.2   1 <1>   0.5690 
  3 N        0.8330    -1.0320    -0.2590 N.am  1 <1>  -0.5470 
  4 C       -1.3850    -2.1340     0.1600 C.3   1 <1>   0.0610 
  5 C        2.1850    -0.7020    -0.4470 C.ar  1 <1>   0.1170 
  6 C       -2.0300    -3.0860    -0.8780 C.3   1 <1>  -0.1600 
  7 C       -1.8080    -2.5990     1.5760 C.3   1 <1>  -0.1600 
  8 C       -1.9700    -0.7110    -0.0690 C.3   1 <1>  -0.1600 
  9 C        2.4810     0.6570    -0.7430 C.ar  1 <1>   0.3100 
 10 C        3.2090    -1.6210    -0.3570 C.ar  1 <1>  -0.1500 
 11 C       -3.5640    -3.0980    -0.7430 C.3   1 <1>  -0.0800 
 12 C       -3.3420    -2.6090     1.7230 C.3   1 <1>  -0.0800 
 13 C       -3.5040    -0.7120     0.0700 C.3   1 <1>  -0.0800 
 14 N        1.4560     1.5590    -0.8280 N.ar  1 <1>  -0.6200 
 15 C        3.8300     1.0350    -0.9400 C.ar  1 <1>   0.0000 
 16 C        4.5370    -1.2400    -0.5530 C.ar  1 <1>  -0.1500 
 17 C       -3.9420    -3.5640     0.6750 C.3   1 <1>  -0.1600 
 18 C       -4.1050    -1.6750    -0.9700 C.3   1 <1>  -0.1600 
 19 C       -3.8830    -1.1880     1.4840 C.3   1 <1>  -0.1600 
 20 C        1.7610     2.7920    -1.1000 C.ar  1 <1>   0.1600 
 21 C        4.1070     2.3820    -1.2310 C.ar  1 <1>  -0.1500 
 22 C        4.8410     0.0630    -0.8390 C.ar  1 <1>  -0.1500 
 23 C        3.0660     3.2540    -1.3100 C.ar  1 <1>  -0.1500 
 24 H        0.2440    -0.2020    -0.3700 H     1 <1>   0.3700 
 25 H       -1.7550    -2.7780    -1.8720 H     1 <1>   0.0800 
 26 H       -1.6530    -4.0840    -0.7350 H     1 <1>   0.0800 
 27 H       -1.3770    -1.9470     2.3160 H     1 <1>   0.0800 
 28 H       -1.4270    -3.5890     1.7600 H     1 <1>   0.0800 
 29 H       -1.7110    -0.3600    -1.0540 H     1 <1>   0.0800 
 30 H       -1.5570    -0.0230     0.6490 H     1 <1>   0.0800 
 31 H        3.0070    -2.6520    -0.1350 H     1 <1>   0.1500 
 32 H       -3.9880    -3.7690    -1.4710 H     1 <1>   0.0800 
 33 H       -3.6100    -2.9390     2.7120 H     1 <1>   0.0800 
 34 H       -3.8850     0.2820    -0.0930 H     1 <1>   0.0800 
 35 H        5.3100    -1.9840    -0.4760 H     1 <1>   0.1500 
 36 H       -3.5760    -4.5620     0.8400 H     1 <1>   0.0800 
 37 H       -5.0130    -3.5890     0.7770 H     1 <1>   0.0800 
 38 H       -5.1780    -1.6760    -0.8880 H     1 <1>   0.0800 
 39 H       -3.8540    -1.3440    -1.9630 H     1 <1>   0.0800 
 40 H       -4.9530    -1.1830     1.5950 H     1 <1>   0.0800 
 41 H       -3.4760    -0.5140     2.2180 H     1 <1>   0.0800 
 42 H        0.9590     3.5090    -1.1700 H     1 <1>   0.1500 
 43 H        5.1240     2.6960    -1.3860 H     1 <1>   0.1500 
 44 H        5.8640     0.3610    -0.9900 H     1 <1>   0.1500 
 45 H        3.2210     4.2950    -1.5300 H     1 <1>   0.1500 
@<TRIPOS>BOND
  1   1   2  2   
  2   2   3  am  
  3   2   4  1   
  4   3   5  1   
  5   3  24  1   
  6   4   6  1   
  7   4   7  1   
  8   4   8  1   
  9   5   9  ar  
 10   5  10  ar  
 11   6  11  1   
 12   6  25  1   
 13   6  26  1   
 14   7  12  1   
 15   7  27  1   
 16   7  28  1   
 17   8  13  1   
 18   8  29  1   
 19   8  30  1   
 20   9  14  ar  
 21   9  15  ar  
 22  10  16  ar  
 23  10  31  1   
 24  11  17  1   
 25  11  18  1   
 26  11  32  1   
 27  12  17  1   
 28  12  19  1   
 29  12  33  1   
 30  13  18  1   
 31  13  19  1   
 32  13  34  1   
 33  14  20  ar  
 34  15  21  ar  
 35  15  22  ar  
 36  16  22  ar  
 37  16  35  1   
 38  17  36  1   
 39  17  37  1   
 40  18  38  1   
 41  18  39  1   
 42  19  40  1   
 43  19  41  1   
 44  20  23  ar  
 45  20  42  1   
 46  21  23  ar  
 47  21  43  1   
 48  22  44  1   
 49  23  45  1   
@<TRIPOS>SUBSTRUCTURE
  1 ****   3 GROUP 4 **** **** 0

# MOE 2024.06 (io_trps.svl 2023.06)
