@<TRIPOS>MOLECULE
3-Methyl-5-(3-oxo-1,3-dihydro-isobenzofuran-1-ylamino)-thiophene-2,4-dicarboxyli
46 48 1 0 0 
SMALL
USER_CHARGES


@<TRIPOS>ATOM
  1 S       -0.2520    -0.3180    -0.4080 S.3   1 <1>  -0.0800 
  2 C       -1.4850     0.8150    -0.8920 C.2   1 <1>   0.1240 
  3 C        0.8950     0.9510     0.0350 C.2   1 <1>  -0.0450 
  4 N       -2.6730     0.3200    -1.3390 N.pl3 1 <1>  -0.8530 
  5 C       -1.0400     2.1080    -0.7420 C.2   1 <1>  -0.0860 
  6 C        0.2940     2.1590    -0.1940 C.2   1 <1>  -0.1810 
  7 C        2.1700     0.4910     0.5210 C.2   1 <1>   0.8050 
  8 C       -3.0620    -1.0750    -1.5000 C.3   1 <1>   0.7130 
  9 C       -1.8400     3.2510    -1.1140 C.2   1 <1>   0.8060 
 10 C        0.9550     3.5030     0.1150 C.3   1 <1>  -0.0590 
 11 O        2.4090    -0.6750     0.7800 O.2   1 <1>  -0.5700 
 12 O        3.1530     1.3820     0.6900 O.3   1 <1>  -0.4300 
 13 O       -4.0390    -1.0780    -2.5110 O.3   1 <1>  -0.4300 
 14 C       -3.7910    -1.5910    -0.2750 C.ar  1 <1>  -0.1440 
 15 O       -1.4090     4.3850    -1.2380 O.2   1 <1>  -0.5700 
 16 O       -3.1480     3.0660    -1.3510 O.3   1 <1>  -0.4300 
 17 C        4.4300     1.0020     1.1520 C.3   1 <1>   0.1200 
 18 C       -5.1930    -1.5320    -2.0420 C.2   1 <1>   0.6340 
 19 C       -5.0820    -1.8620    -0.6570 C.ar  1 <1>   0.0860 
 20 C       -3.3640    -1.7990     1.0240 C.ar  1 <1>  -0.1500 
 21 C       -3.9980     4.1200    -1.7420 C.3   1 <1>   0.1200 
 22 C        5.2940     2.2570     1.2340 C.3   1 <1>  -0.2400 
 23 O       -6.1630    -1.6240    -2.7560 O.2   1 <1>  -0.5700 
 24 C       -5.9890    -2.3620     0.2710 C.ar  1 <1>  -0.1500 
 25 C       -4.2670    -2.2980     1.9500 C.ar  1 <1>  -0.1500 
 26 C       -5.3920     3.5390    -1.9550 C.3   1 <1>  -0.2400 
 27 C       -5.5740    -2.5790     1.5750 C.ar  1 <1>  -0.1500 
 28 H       -3.4160     0.9640    -1.6310 H     1 <1>   0.4000 
 29 H       -2.2370    -1.7020    -1.7970 H     1 <1>   0.0800 
 30 H        1.8570     3.4020     0.6840 H     1 <1>   0.0800 
 31 H        0.2880     4.1180     0.6930 H     1 <1>   0.0800 
 32 H        1.1900     4.0160    -0.8000 H     1 <1>   0.0800 
 33 H        4.8470     0.2910     0.4590 H     1 <1>   0.0800 
 34 H        4.3220     0.5440     2.1210 H     1 <1>   0.0800 
 35 H       -2.3510    -1.5760     1.3140 H     1 <1>   0.1500 
 36 H       -3.6150     4.5500    -2.6520 H     1 <1>   0.0800 
 37 H       -4.0020     4.8630    -0.9620 H     1 <1>   0.0800 
 38 H        5.3830     2.7090     0.2620 H     1 <1>   0.0800 
 39 H        6.2770     1.9980     1.5830 H     1 <1>   0.0800 
 40 H        4.8610     2.9610     1.9210 H     1 <1>   0.0800 
 41 H       -6.9990    -2.5730    -0.0340 H     1 <1>   0.1500 
 42 H       -3.9520    -2.4660     2.9670 H     1 <1>   0.1500 
 43 H       -5.3720     2.7940    -2.7310 H     1 <1>   0.0800 
 44 H       -6.0680     4.3210    -2.2530 H     1 <1>   0.0800 
 45 H       -5.7580     3.1020    -1.0440 H     1 <1>   0.0800 
 46 H       -6.2680    -2.9670     2.3020 H     1 <1>   0.1500 
@<TRIPOS>BOND
  1   1   2  1   
  2   1   3  1   
  3   2   4  1   
  4   2   5  2   
  5   3   6  2   
  6   3   7  1   
  7   4   8  1   
  8   4  28  1   
  9   5   6  1   
 10   5   9  1   
 11   6  10  1   
 12   7  11  2   
 13   7  12  1   
 14   8  13  1   
 15   8  14  1   
 16   8  29  1   
 17   9  15  2   
 18   9  16  1   
 19  10  30  1   
 20  10  31  1   
 21  10  32  1   
 22  12  17  1   
 23  13  18  1   
 24  14  19  ar  
 25  14  20  ar  
 26  16  21  1   
 27  17  22  1   
 28  17  33  1   
 29  17  34  1   
 30  18  19  1   
 31  18  23  2   
 32  19  24  ar  
 33  20  25  ar  
 34  20  35  1   
 35  21  26  1   
 36  21  36  1   
 37  21  37  1   
 38  22  38  1   
 39  22  39  1   
 40  22  40  1   
 41  24  27  ar  
 42  24  41  1   
 43  25  27  ar  
 44  25  42  1   
 45  26  43  1   
 46  26  44  1   
 47  26  45  1   
 48  27  46  1   
@<TRIPOS>SUBSTRUCTURE
  1 ****   2 GROUP 4 **** **** 0

# MOE 2024.06 (io_trps.svl 2023.06)
