@<TRIPOS>MOLECULE
5,7-Dimethyl-2-naphthalen-1-yl-1,3-diaza-tricyclo[3.3.1.1*3,7*]decan-6-one
46 50 1 0 0 
SMALL
USER_CHARGES


@<TRIPOS>ATOM
  1 O        0.0590     0.3510    -0.6090 O.2   1 <1>  -0.5700 
  2 C        0.6750    -0.6520    -0.4120 C.2   1 <1>   0.4480 
  3 C        2.0970    -0.6640     0.1480 C.3   1 <1>   0.0610 
  4 C        0.1490    -2.0410    -0.7770 C.3   1 <1>   0.0610 
  5 C        2.9540    -1.2390    -0.9910 C.3   1 <1>   0.3430 
  6 C        2.1050    -1.6340     1.3440 C.3   1 <1>   0.1100 
  7 C        2.6040     0.7290     0.5720 C.3   1 <1>  -0.2400 
  8 C        1.1040    -2.5740    -1.8620 C.3   1 <1>   0.3430 
  9 C        0.2890    -2.9370     0.4700 C.3   1 <1>   0.1100 
 10 C       -1.3090    -2.0340    -1.2800 C.3   1 <1>  -0.2400 
 11 N        2.5070    -2.6290    -1.3270 N.4   1 <1>  -0.9590 
 12 N        1.7080    -2.9770     0.8890 N.3   1 <1>  -0.8100 
 13 C        2.5140    -3.5670    -0.1840 C.3   1 <1>   0.8360 
 14 C        3.8300    -4.3110     0.1140 C.ar  1 <1>  -0.1440 
 15 C        5.1290    -3.7970     0.4410 C.ar  1 <1>   0.0000 
 16 C        3.6790    -5.6740    -0.0230 C.ar  1 <1>  -0.1500 
 17 C        6.2180    -4.7090     0.4830 C.ar  1 <1>   0.0000 
 18 C        5.4650    -2.4550     0.7490 C.ar  1 <1>  -0.1500 
 19 C        4.7440    -6.5650     0.0860 C.ar  1 <1>  -0.1500 
 20 C        5.9930    -6.0860     0.3200 C.ar  1 <1>  -0.1500 
 21 C        7.5340    -4.2510     0.7010 C.ar  1 <1>  -0.1500 
 22 C        6.7440    -2.0290     0.9740 C.ar  1 <1>  -0.1500 
 23 C        7.8010    -2.9360     0.9350 C.ar  1 <1>  -0.1500 
 24 H        3.9970    -1.2270    -0.7450 H     1 <1>   0.0800 
 25 H        2.8360    -0.6080    -1.8580 H     1 <1>   0.0800 
 26 H        3.0470    -1.6790     1.8520 H     1 <1>   0.0800 
 27 H        1.3980    -1.2890     2.0820 H     1 <1>   0.0800 
 28 H        3.6100     0.6790     0.9530 H     1 <1>   0.0800 
 29 H        1.9700     1.1360     1.3420 H     1 <1>   0.0800 
 30 H        2.5860     1.4110    -0.2620 H     1 <1>   0.0800 
 31 H        0.7850    -3.5580    -2.1670 H     1 <1>   0.0800 
 32 H        1.0610    -1.9260    -2.7240 H     1 <1>   0.0800 
 33 H       -0.0570    -3.9360     0.2590 H     1 <1>   0.0800 
 34 H       -0.3180    -2.5510     1.2740 H     1 <1>   0.0800 
 35 H       -1.4060    -1.4080    -2.1510 H     1 <1>   0.0800 
 36 H       -1.9620    -1.6390    -0.5200 H     1 <1>   0.0800 
 37 H       -1.6410    -3.0270    -1.5300 H     1 <1>   0.0800 
 38 H        3.1490    -3.0390    -2.0170 H     1 <1>   0.4500 
 39 H        1.8960    -4.3830    -0.5200 H     1 <1>   0.0800 
 40 H        2.7230    -6.1260    -0.2320 H     1 <1>   0.1500 
 41 H        4.7170    -1.7180     0.8420 H     1 <1>   0.1500 
 42 H        4.5700    -7.6230    -0.0240 H     1 <1>   0.1500 
 43 H        6.8280    -6.7610     0.3910 H     1 <1>   0.1500 
 44 H        8.3380    -4.9660     0.6870 H     1 <1>   0.1500 
 45 H        6.9620    -0.9980     1.1960 H     1 <1>   0.1500 
 46 H        8.8070    -2.5910     1.1030 H     1 <1>   0.1500 
@<TRIPOS>BOND
  1   1   2  2   
  2   2   3  1   
  3   2   4  1   
  4   3   5  1   
  5   3   6  1   
  6   3   7  1   
  7   4   8  1   
  8   4   9  1   
  9   4  10  1   
 10   5  11  1   
 11   5  24  1   
 12   5  25  1   
 13   6  12  1   
 14   6  26  1   
 15   6  27  1   
 16   7  28  1   
 17   7  29  1   
 18   7  30  1   
 19   8  11  1   
 20   8  31  1   
 21   8  32  1   
 22   9  12  1   
 23   9  33  1   
 24   9  34  1   
 25  10  35  1   
 26  10  36  1   
 27  10  37  1   
 28  11  13  1   
 29  11  38  1   
 30  12  13  1   
 31  13  14  1   
 32  13  39  1   
 33  14  15  ar  
 34  14  16  ar  
 35  15  17  ar  
 36  15  18  ar  
 37  16  19  ar  
 38  16  40  1   
 39  17  20  ar  
 40  17  21  ar  
 41  18  22  ar  
 42  18  41  1   
 43  19  20  ar  
 44  19  42  1   
 45  20  43  1   
 46  21  23  ar  
 47  21  44  1   
 48  22  23  ar  
 49  22  45  1   
 50  23  46  1   
@<TRIPOS>SUBSTRUCTURE
  1 ****  13 GROUP 4 **** **** 0

# MOE 2024.06 (io_trps.svl 2023.06)
