@<TRIPOS>MOLECULE
4,5-Dimethyl-2-(3-oxo-1,3-dihydro-isobenzofuran-1-ylamino)-thiophene-3-carboxyli
40 42 1 0 0 
SMALL
USER_CHARGES


@<TRIPOS>ATOM
  1 S       -0.4290    -0.5130     0.5260 S.3   1 <1>  -0.0800 
  2 C       -1.4930     0.6460    -0.2450 C.2   1 <1>   0.1240 
  3 C        0.6620     0.7470     1.0660 C.2   1 <1>  -0.1400 
  4 N       -2.6110     0.1670    -0.8760 N.pl3 1 <1>  -0.8530 
  5 C       -1.0230     1.9290    -0.0920 C.2   1 <1>  -0.0860 
  6 C        0.2180     1.9560     0.6680 C.2   1 <1>  -0.1810 
  7 C        1.8630     0.2570     1.8540 C.3   1 <1>  -0.0600 
  8 C       -2.9960    -1.2220    -1.0770 C.3   1 <1>   0.7130 
  9 C       -1.6930     3.0880    -0.6290 C.2   1 <1>   0.8060 
 10 C        0.9440     3.2600     0.9790 C.3   1 <1>  -0.0590 
 11 O       -3.7240    -1.2420    -2.2800 O.3   1 <1>  -0.4300 
 12 C       -3.9940    -1.6770    -0.0310 C.ar  1 <1>  -0.1440 
 13 O       -1.3050     4.2370    -0.5000 O.2   1 <1>  -0.5700 
 14 O       -2.8260     2.9050    -1.3260 O.3   1 <1>  -0.4300 
 15 C       -4.9630    -1.6630    -2.0680 C.2   1 <1>   0.6340 
 16 C       -5.1720    -1.9430    -0.6830 C.ar  1 <1>   0.0860 
 17 C       -3.8740    -1.8370     1.3380 C.ar  1 <1>  -0.1500 
 18 C       -3.5430     3.9780    -1.8920 C.3   1 <1>   0.1200 
 19 O       -5.7500    -1.7700    -2.9780 O.2   1 <1>  -0.5700 
 20 C       -6.2740    -2.3950     0.0340 C.ar  1 <1>  -0.1500 
 21 C       -4.9730    -2.2870     2.0550 C.ar  1 <1>  -0.1500 
 22 C       -4.7660     3.4000    -2.5980 C.3   1 <1>  -0.2400 
 23 C       -6.1680    -2.5660     1.4040 C.ar  1 <1>  -0.1500 
 24 H       -3.2210     0.8200    -1.3800 H     1 <1>   0.4000 
 25 H        1.5310    -0.2630     2.7350 H     1 <1>   0.0800 
 26 H        2.4950     1.0700     2.1570 H     1 <1>   0.0800 
 27 H        2.4420    -0.4190     1.2510 H     1 <1>   0.0800 
 28 H       -2.1450    -1.8770    -1.1630 H     1 <1>   0.0800 
 29 H        1.8390     3.0930     1.5460 H     1 <1>   0.0800 
 30 H        0.3050     3.9100     1.5500 H     1 <1>   0.0800 
 31 H        1.2170     3.7570     0.0650 H     1 <1>   0.0800 
 32 H       -2.9470    -1.6120     1.8380 H     1 <1>   0.1500 
 33 H       -2.9000     4.4900    -2.5880 H     1 <1>   0.0800 
 34 H       -3.8330     4.6510    -1.1030 H     1 <1>   0.0800 
 35 H       -7.1950    -2.6050    -0.4830 H     1 <1>   0.1500 
 36 H       -4.8990    -2.4170     3.1210 H     1 <1>   0.1500 
 37 H       -4.4610     2.7200    -3.3740 H     1 <1>   0.0800 
 38 H       -5.3350     4.1950    -3.0450 H     1 <1>   0.0800 
 39 H       -5.3940     2.8850    -1.8930 H     1 <1>   0.0800 
 40 H       -7.0150    -2.9160     1.9700 H     1 <1>   0.1500 
@<TRIPOS>BOND
  1   1   2  1   
  2   1   3  1   
  3   2   4  1   
  4   2   5  2   
  5   3   6  2   
  6   3   7  1   
  7   4   8  1   
  8   4  24  1   
  9   5   6  1   
 10   5   9  1   
 11   6  10  1   
 12   7  25  1   
 13   7  26  1   
 14   7  27  1   
 15   8  11  1   
 16   8  12  1   
 17   8  28  1   
 18   9  13  2   
 19   9  14  1   
 20  10  29  1   
 21  10  30  1   
 22  10  31  1   
 23  11  15  1   
 24  12  16  ar  
 25  12  17  ar  
 26  14  18  1   
 27  15  16  1   
 28  15  19  2   
 29  16  20  ar  
 30  17  21  ar  
 31  17  32  1   
 32  18  22  1   
 33  18  33  1   
 34  18  34  1   
 35  20  23  ar  
 36  20  35  1   
 37  21  23  ar  
 38  21  36  1   
 39  22  37  1   
 40  22  38  1   
 41  22  39  1   
 42  23  40  1   
@<TRIPOS>SUBSTRUCTURE
  1 ****   4 GROUP 4 **** **** 0

# MOE 2024.06 (io_trps.svl 2023.06)
