@<TRIPOS>MOLECULE
N-Methyl-N-[2-(4-methyl-piperidine-1-carbonyl)-phenyl]-methanesulfonamide
43 44 1 0 0 
SMALL
USER_CHARGES


@<TRIPOS>ATOM
  1 S        0.7170     0.0350    -0.6550 S.o2  1 <1>   1.3330 
  2 O       -0.6700     0.3930    -0.8290 O.2   1 <1>  -0.6500 
  3 O        1.2840    -1.0690    -1.3920 O.2   1 <1>  -0.6500 
  4 N        1.6840     1.4330    -1.0130 N.am  1 <1>  -0.6930 
  5 C        1.0310    -0.2280     1.0760 C.3   1 <1>  -0.1350 
  6 C        1.3210     2.7060    -0.5750 C.ar  1 <1>   0.1990 
  7 C        3.0450     1.1810    -1.5450 C.3   1 <1>   0.1160 
  8 C        2.0400     3.4160     0.4050 C.ar  1 <1>   0.0860 
  9 C        0.1960     3.3000    -1.1400 C.ar  1 <1>  -0.1500 
 10 C        3.2170     2.8690     1.0350 C.2   1 <1>   0.5440 
 11 C        1.5890     4.6830     0.7820 C.ar  1 <1>  -0.1500 
 12 C       -0.2300     4.5560    -0.7600 C.ar  1 <1>  -0.1500 
 13 O        3.0950     1.9390     1.8120 O.2   1 <1>  -0.5700 
 14 N        4.4810     3.3750     0.7890 N.am  1 <1>  -0.6600 
 15 C        0.4710     5.2520     0.2090 C.ar  1 <1>  -0.1500 
 16 C        5.6830     2.8690     1.5130 C.3   1 <1>   0.1400 
 17 C        4.7630     4.4940    -0.1570 C.3   1 <1>   0.1400 
 18 C        6.7510     2.4310     0.5060 C.3   1 <1>  -0.1600 
 19 C        5.8470     4.0850    -1.1600 C.3   1 <1>  -0.1600 
 20 C        7.1130     3.5690    -0.4600 C.3   1 <1>  -0.0800 
 21 C        8.1440     3.0940    -1.4900 C.3   1 <1>  -0.2400 
 22 H        0.4800    -1.0780     1.4260 H     1 <1>   0.0800 
 23 H        0.7340     0.6330     1.6420 H     1 <1>   0.0800 
 24 H        2.0760    -0.4020     1.2400 H     1 <1>   0.0800 
 25 H        2.9840     0.5610    -2.4230 H     1 <1>   0.0800 
 26 H        3.6430     0.6820    -0.8020 H     1 <1>   0.0800 
 27 H        3.5150     2.1100    -1.8130 H     1 <1>   0.0800 
 28 H       -0.3530     2.7570    -1.8900 H     1 <1>   0.1500 
 29 H        2.1300     5.2200     1.5420 H     1 <1>   0.1500 
 30 H       -1.1060     4.9900    -1.2120 H     1 <1>   0.1500 
 31 H        0.1390     6.2310     0.5130 H     1 <1>   0.1500 
 32 H        5.4300     2.0370     2.1470 H     1 <1>   0.0800 
 33 H        6.0700     3.6550     2.1380 H     1 <1>   0.0800 
 34 H        5.0980     5.3470     0.4080 H     1 <1>   0.0800 
 35 H        3.8770     4.7780    -0.6970 H     1 <1>   0.0800 
 36 H        6.3810     1.5820    -0.0400 H     1 <1>   0.0800 
 37 H        7.6280     2.1190     1.0440 H     1 <1>   0.0800 
 38 H        6.0940     4.9340    -1.7710 H     1 <1>   0.0800 
 39 H        5.4530     3.3230    -1.8080 H     1 <1>   0.0800 
 40 H        7.5450     4.3760     0.1080 H     1 <1>   0.0800 
 41 H        7.7500     2.2840    -2.0780 H     1 <1>   0.0800 
 42 H        9.0370     2.7560    -0.9950 H     1 <1>   0.0800 
 43 H        8.4100     3.9000    -2.1510 H     1 <1>   0.0800 
@<TRIPOS>BOND
  1   1   2  2   
  2   1   3  2   
  3   1   4  am  
  4   1   5  1   
  5   4   6  1   
  6   4   7  1   
  7   5  22  1   
  8   5  23  1   
  9   5  24  1   
 10   6   8  ar  
 11   6   9  ar  
 12   7  25  1   
 13   7  26  1   
 14   7  27  1   
 15   8  10  1   
 16   8  11  ar  
 17   9  12  ar  
 18   9  28  1   
 19  10  13  2   
 20  10  14  am  
 21  11  15  ar  
 22  11  29  1   
 23  12  15  ar  
 24  12  30  1   
 25  14  16  1   
 26  14  17  1   
 27  15  31  1   
 28  16  18  1   
 29  16  32  1   
 30  16  33  1   
 31  17  19  1   
 32  17  34  1   
 33  17  35  1   
 34  18  20  1   
 35  18  36  1   
 36  18  37  1   
 37  19  20  1   
 38  19  38  1   
 39  19  39  1   
 40  20  21  1   
 41  20  40  1   
 42  21  41  1   
 43  21  42  1   
 44  21  43  1   
@<TRIPOS>SUBSTRUCTURE
  1 ****  10 GROUP 4 **** **** 0

# MOE 2024.06 (io_trps.svl 2023.06)
