@<TRIPOS>MOLECULE
1-Isopropyl-5-oxo-pyrrolidine-3-carboxylic acid (3-chloro-4-fluoro-phenyl)-amide
36 37 1 0 0 
SMALL
USER_CHARGES


@<TRIPOS>ATOM
  1 CL       0.6310    -0.1540     1.9450 Cl    1 <1>  -0.1770 
  2 C        1.8180    -0.9210     0.9140 C.ar  1 <1>   0.1770 
  3 C        1.5480    -2.1270     0.2890 C.ar  1 <1>   0.1900 
  4 C        3.0410    -0.3070     0.7280 C.ar  1 <1>  -0.1500 
  5 F        0.3900    -2.7120     0.4640 F     1 <1>  -0.1900 
  6 C        2.4830    -2.7340    -0.5270 C.ar  1 <1>  -0.1500 
  7 C        4.0040    -0.8980    -0.0860 C.ar  1 <1>   0.1170 
  8 C        3.7080    -2.1120    -0.7100 C.ar  1 <1>  -0.1500 
  9 N        5.2310    -0.2380    -0.2550 N.am  1 <1>  -0.5470 
 10 C        6.4740    -0.7350    -0.5440 C.2   1 <1>   0.5690 
 11 O        6.6900    -1.9080    -0.7210 O.2   1 <1>  -0.5700 
 12 C        7.6300     0.2490    -0.6610 C.3   1 <1>  -0.0190 
 13 C        9.0110    -0.4110    -0.5150 C.3   1 <1>   0.1400 
 14 C        7.6220     1.3850     0.3810 C.3   1 <1>  -0.0990 
 15 N        9.8350     0.6300     0.1240 N.am  1 <1>  -0.6600 
 16 C        9.0820     1.6380     0.6280 C.2   1 <1>   0.5690 
 17 C       11.2990     0.4470     0.2220 C.3   1 <1>   0.2200 
 18 O        9.4670     2.6230     1.2070 O.2   1 <1>  -0.5700 
 19 C       11.7140     0.3440     1.6880 C.3   1 <1>  -0.2400 
 20 C       12.0140     1.5910    -0.4930 C.3   1 <1>  -0.2400 
 21 H        3.2380     0.6260     1.2220 H     1 <1>   0.1500 
 22 H        2.2560    -3.6710    -1.0050 H     1 <1>   0.1500 
 23 H        4.4360    -2.5800    -1.3490 H     1 <1>   0.1500 
 24 H        5.1990     0.7650    -0.0810 H     1 <1>   0.3700 
 25 H        7.5900     0.6860    -1.6430 H     1 <1>   0.0800 
 26 H        9.4130    -0.6930    -1.4740 H     1 <1>   0.0800 
 27 H        8.9710    -1.2720     0.1310 H     1 <1>   0.0800 
 28 H        7.1800     1.0730     1.3100 H     1 <1>   0.0800 
 29 H        7.1420     2.2730     0.0140 H     1 <1>   0.0800 
 30 H       11.5620    -0.4760    -0.2700 H     1 <1>   0.0800 
 31 H       11.5110     1.2640     2.2060 H     1 <1>   0.0800 
 32 H       12.7680     0.1430     1.7560 H     1 <1>   0.0800 
 33 H       11.1820    -0.4580     2.1670 H     1 <1>   0.0800 
 34 H       11.8130     2.5280    -0.0050 H     1 <1>   0.0800 
 35 H       11.6890     1.6480    -1.5160 H     1 <1>   0.0800 
 36 H       13.0750     1.4240    -0.4800 H     1 <1>   0.0800 
@<TRIPOS>BOND
  1   1   2  1   
  2   2   3  ar  
  3   2   4  ar  
  4   3   5  1   
  5   3   6  ar  
  6   4   7  ar  
  7   4  21  1   
  8   6   8  ar  
  9   6  22  1   
 10   7   8  ar  
 11   7   9  1   
 12   8  23  1   
 13   9  10  am  
 14   9  24  1   
 15  10  11  2   
 16  10  12  1   
 17  12  13  1   
 18  12  14  1   
 19  12  25  1   
 20  13  15  1   
 21  13  26  1   
 22  13  27  1   
 23  14  16  1   
 24  14  28  1   
 25  14  29  1   
 26  15  16  am  
 27  15  17  1   
 28  16  18  2   
 29  17  19  1   
 30  17  20  1   
 31  17  30  1   
 32  19  31  1   
 33  19  32  1   
 34  19  33  1   
 35  20  34  1   
 36  20  35  1   
 37  20  36  1   
@<TRIPOS>SUBSTRUCTURE
  1 ****  10 GROUP 4 **** **** 0

# MOE 2024.06 (io_trps.svl 2023.06)
