@<TRIPOS>MOLECULE
4-[2-Hydroxy-3-(naphthalen-2-yloxy)-propyl]-piperazine-1-sulfonic acid dimethyla
54 56 1 0 0 
SMALL
USER_CHARGES


@<TRIPOS>ATOM
  1 S       -0.0990     0.0420     0.7460 S.o2  1 <1>   1.5760 
  2 O       -0.1470    -0.9430     1.8040 O.2   1 <1>  -0.6500 
  3 O       -0.6570     1.3620     0.9420 O.2   1 <1>  -0.6500 
  4 N        1.5020     0.2010     0.2450 N.am  1 <1>  -0.8490 
  5 N       -0.7850    -0.6180    -0.6530 N.am  1 <1>  -0.8490 
  6 C        2.1530    -1.1080     0.0840 C.3   1 <1>   0.1960 
  7 C        2.2690     1.0090     1.2000 C.3   1 <1>   0.1960 
  8 C       -2.1180    -1.1600    -0.3910 C.3   1 <1>   0.1160 
  9 C       -0.8390     0.3460    -1.7550 C.3   1 <1>   0.1160 
 10 C        3.6110    -0.9530    -0.3880 C.3   1 <1>   0.1100 
 11 C        3.7300     1.1830     0.7410 C.3   1 <1>   0.1100 
 12 N        4.4060    -0.1180     0.5450 N.3   1 <1>  -0.8100 
 13 C        5.7980     0.0770     0.0700 C.3   1 <1>   0.1100 
 14 C        6.6370    -1.2080     0.1970 C.3   1 <1>   0.2000 
 15 O        6.3010    -1.7820     1.4100 O.3   1 <1>  -0.6800 
 16 C        8.1470    -0.9380     0.1270 C.3   1 <1>   0.1200 
 17 O        8.8540    -2.1560     0.0010 O.3   1 <1>  -0.3620 
 18 C       10.2040    -2.1760    -0.1140 C.ar  1 <1>   0.0820 
 19 C       11.0070    -1.0600    -0.0880 C.ar  1 <1>  -0.1500 
 20 C       10.7860    -3.4400    -0.2720 C.ar  1 <1>  -0.1500 
 21 C       12.4060    -1.1620    -0.2240 C.ar  1 <1>   0.0000 
 22 C       12.1400    -3.5680    -0.4050 C.ar  1 <1>  -0.1500 
 23 C       12.9850    -2.4400    -0.3880 C.ar  1 <1>   0.0000 
 24 C       13.2530    -0.0350    -0.2040 C.ar  1 <1>  -0.1500 
 25 C       14.3840    -2.5380    -0.5260 C.ar  1 <1>  -0.1500 
 26 C       14.6080    -0.1600    -0.3410 C.ar  1 <1>  -0.1500 
 27 C       15.1800    -1.4260    -0.5040 C.ar  1 <1>  -0.1500 
 28 H        1.6120    -1.6920    -0.6410 H     1 <1>   0.0800 
 29 H        2.1450    -1.6470     1.0170 H     1 <1>   0.0800 
 30 H        2.2560     0.5440     2.1720 H     1 <1>   0.0800 
 31 H        1.8160     1.9820     1.2900 H     1 <1>   0.0800 
 32 H       -2.0610    -1.9230     0.3680 H     1 <1>   0.0800 
 33 H       -2.5220    -1.6020    -1.2850 H     1 <1>   0.0800 
 34 H       -2.7800    -0.3800    -0.0500 H     1 <1>   0.0800 
 35 H        0.1490     0.7190    -1.9660 H     1 <1>   0.0800 
 36 H       -1.4740     1.1790    -1.4990 H     1 <1>   0.0800 
 37 H       -1.2190    -0.1290    -2.6420 H     1 <1>   0.0800 
 38 H        3.6090    -0.5100    -1.3690 H     1 <1>   0.0800 
 39 H        4.0490    -1.9330    -0.4620 H     1 <1>   0.0800 
 40 H        4.2590     1.7510     1.4860 H     1 <1>   0.0800 
 41 H        3.7370     1.7440    -0.1790 H     1 <1>   0.0800 
 42 H        6.2670     0.8370     0.6720 H     1 <1>   0.0800 
 43 H        5.8020     0.4190    -0.9510 H     1 <1>   0.0800 
 44 H        6.3610    -1.8940    -0.5840 H     1 <1>   0.0800 
 45 H        5.3840    -1.4680     1.5970 H     1 <1>   0.4000 
 46 H        8.4780    -0.4360     1.0190 H     1 <1>   0.0800 
 47 H        8.3720    -0.3420    -0.7380 H     1 <1>   0.0800 
 48 H       10.5990    -0.0770     0.0380 H     1 <1>   0.1500 
 49 H       10.1390    -4.2980    -0.2830 H     1 <1>   0.1500 
 50 H       12.5840    -4.5390    -0.5260 H     1 <1>   0.1500 
 51 H       12.8100     0.9360    -0.0780 H     1 <1>   0.1500 
 52 H       14.8180    -3.5140    -0.6500 H     1 <1>   0.1500 
 53 H       15.2490     0.7050    -0.3250 H     1 <1>   0.1500 
 54 H       16.2480    -1.5090    -0.6100 H     1 <1>   0.1500 
@<TRIPOS>BOND
  1   1   2  2   
  2   1   3  2   
  3   1   4  am  
  4   1   5  am  
  5   4   6  1   
  6   4   7  1   
  7   5   8  1   
  8   5   9  1   
  9   6  10  1   
 10   6  28  1   
 11   6  29  1   
 12   7  11  1   
 13   7  30  1   
 14   7  31  1   
 15   8  32  1   
 16   8  33  1   
 17   8  34  1   
 18   9  35  1   
 19   9  36  1   
 20   9  37  1   
 21  10  12  1   
 22  10  38  1   
 23  10  39  1   
 24  11  12  1   
 25  11  40  1   
 26  11  41  1   
 27  12  13  1   
 28  13  14  1   
 29  13  42  1   
 30  13  43  1   
 31  14  15  1   
 32  14  16  1   
 33  14  44  1   
 34  15  45  1   
 35  16  17  1   
 36  16  46  1   
 37  16  47  1   
 38  17  18  1   
 39  18  19  ar  
 40  18  20  ar  
 41  19  21  ar  
 42  19  48  1   
 43  20  22  ar  
 44  20  49  1   
 45  21  23  ar  
 46  21  24  ar  
 47  22  23  ar  
 48  22  50  1   
 49  23  25  ar  
 50  24  26  ar  
 51  24  51  1   
 52  25  27  ar  
 53  25  52  1   
 54  26  27  ar  
 55  26  53  1   
 56  27  54  1   
@<TRIPOS>SUBSTRUCTURE
  1 ****  14 GROUP 4 **** **** 0

# MOE 2024.06 (io_trps.svl 2023.06)
