@<TRIPOS>MOLECULE
Ethyl-(6-ethyl-2-methyl-thieno[2,3-d]pyrimidin-4-yl)-amine
30 31 1 0 0 
SMALL
USER_CHARGES


@<TRIPOS>ATOM
  1 S       -0.2000    -0.4530    -0.3160 S.3   1 <1>  -0.0800 
  2 C        1.3480     0.3890    -0.3670 C.ar  1 <1>   0.2970 
  3 C       -1.0830     1.0610    -0.0860 C.2   1 <1>  -0.1400 
  4 N        2.5020    -0.2220    -0.5270 N.ar  1 <1>  -0.5670 
  5 C        1.1590     1.7390    -0.2160 C.ar  1 <1>   0.0000 
  6 C       -0.2270     2.1000    -0.0570 C.2   1 <1>  -0.1500 
  7 C       -2.5920     0.9400     0.0360 C.3   1 <1>   0.0200 
  8 C        3.5220     0.6150    -0.5320 C.ar  1 <1>   0.4770 
  9 C        2.3240     2.5020    -0.2440 C.ar  1 <1>   0.4100 
 10 C       -3.2660     2.3010     0.2330 C.3   1 <1>  -0.2400 
 11 N        3.5060     1.9340    -0.4020 N.ar  1 <1>  -0.6200 
 12 C        4.8900     0.0010    -0.7090 C.3   1 <1>  -0.0960 
 13 N        2.2820     3.8670    -0.1140 N.pl3 1 <1>  -0.8690 
 14 C        3.4600     4.7490    -0.1730 C.3   1 <1>   0.2090 
 15 C        3.0490     6.1290     0.3210 C.3   1 <1>  -0.2400 
 16 H       -0.5010     3.1300     0.0740 H     1 <1>   0.1500 
 17 H       -2.8250     0.3020     0.8710 H     1 <1>   0.0800 
 18 H       -2.9780     0.4760    -0.8550 H     1 <1>   0.0800 
 19 H       -2.9050     2.7680     1.1320 H     1 <1>   0.0800 
 20 H       -4.3310     2.1740     0.3150 H     1 <1>   0.0800 
 21 H       -3.0600     2.9430    -0.6040 H     1 <1>   0.0800 
 22 H        4.8170    -1.0670    -0.8030 H     1 <1>   0.0800 
 23 H        5.5000     0.2370     0.1420 H     1 <1>   0.0800 
 24 H        5.3480     0.4000    -1.5940 H     1 <1>   0.0800 
 25 H        1.3770     4.3360    -0.1200 H     1 <1>   0.4000 
 26 H        3.8160     4.8020    -1.1880 H     1 <1>   0.0800 
 27 H        4.2440     4.3480     0.4480 H     1 <1>   0.0800 
 28 H        2.2830     6.5410    -0.3100 H     1 <1>   0.0800 
 29 H        3.9000     6.7850     0.2980 H     1 <1>   0.0800 
 30 H        2.6930     6.0680     1.3340 H     1 <1>   0.0800 
@<TRIPOS>BOND
  1   1   2  1   
  2   1   3  1   
  3   2   4  ar  
  4   2   5  ar  
  5   3   6  2   
  6   3   7  1   
  7   4   8  ar  
  8   5   6  1   
  9   5   9  ar  
 10   6  16  1   
 11   7  10  1   
 12   7  17  1   
 13   7  18  1   
 14   8  11  ar  
 15   8  12  1   
 16   9  11  ar  
 17   9  13  1   
 18  10  19  1   
 19  10  20  1   
 20  10  21  1   
 21  12  22  1   
 22  12  23  1   
 23  12  24  1   
 24  13  14  1   
 25  13  25  1   
 26  14  15  1   
 27  14  26  1   
 28  14  27  1   
 29  15  28  1   
 30  15  29  1   
 31  15  30  1   
@<TRIPOS>SUBSTRUCTURE
  1 ****   5 GROUP 4 **** **** 0

# MOE 2024.06 (io_trps.svl 2023.06)
