@<TRIPOS>MOLECULE
2-[2-Methyl-4-(piperidine-1-sulfonyl)-phenoxy]-N-pyridin-2-ylmethyl-acetamide
53 55 1 0 0 
SMALL
USER_CHARGES


@<TRIPOS>ATOM
  1 S       -0.0420     1.1120    -0.7380 S.o2  1 <1>   1.4470 
  2 O       -0.5700     0.6130    -1.9910 O.2   1 <1>  -0.6500 
  3 O       -0.6780     2.2450    -0.1030 O.2   1 <1>  -0.6500 
  4 N       -0.0830    -0.1780     0.3620 N.am  1 <1>  -0.8490 
  5 C        1.7300     1.4530    -0.9110 C.ar  1 <1>  -0.0090 
  6 C       -1.4270    -0.3560     0.9190 C.3   1 <1>   0.1960 
  7 C        0.4080    -1.4250    -0.2350 C.3   1 <1>   0.1960 
  8 C        2.5450     1.5650     0.2080 C.ar  1 <1>  -0.1500 
  9 C        2.3140     1.6160    -2.1610 C.ar  1 <1>  -0.1500 
 10 C       -1.4100    -1.4220     2.0210 C.3   1 <1>  -0.1600 
 11 C        0.5030    -2.5210     0.8310 C.3   1 <1>  -0.1600 
 12 C        3.9010     1.8250     0.0990 C.ar  1 <1>  -0.1430 
 13 C        3.6650     1.8770    -2.2930 C.ar  1 <1>  -0.1500 
 14 C       -0.8520    -2.7550     1.5080 C.3   1 <1>  -0.1600 
 15 C        4.4670     1.9840    -1.1610 C.ar  1 <1>   0.0820 
 16 C        4.7540     1.9370     1.3550 C.3   1 <1>  -0.0970 
 17 O        5.7950     2.2430    -1.2200 O.3   1 <1>  -0.3630 
 18 C        6.4660     2.4910    -2.4470 C.3   1 <1>   0.1810 
 19 C        7.9310     2.8270    -2.2010 C.2   1 <1>   0.5690 
 20 O        8.6890     2.8660    -3.1410 O.2   1 <1>  -0.5700 
 21 N        8.3500     3.0760    -0.9370 N.am  1 <1>  -0.7300 
 22 C        9.7450     3.3090    -0.5080 C.3   1 <1>   0.2840 
 23 C       10.0730     2.4130     0.6810 C.ar  1 <1>   0.1670 
 24 N        9.4590     2.6870     1.8260 N.ar  1 <1>  -0.6200 
 25 C       10.9730     1.3690     0.5180 C.ar  1 <1>  -0.1500 
 26 C        9.7590     1.8950     2.8430 C.ar  1 <1>   0.1600 
 27 C       11.2750     0.5520     1.5860 C.ar  1 <1>  -0.1500 
 28 C       10.6450     0.8330     2.7790 C.ar  1 <1>  -0.1500 
 29 H       -2.1120    -0.6410     0.1360 H     1 <1>   0.0800 
 30 H       -1.7720     0.5710     1.3460 H     1 <1>   0.0800 
 31 H        1.3850    -1.2670    -0.6590 H     1 <1>   0.0800 
 32 H       -0.2550    -1.7420    -1.0250 H     1 <1>   0.0800 
 33 H        2.0990     1.4440     1.1820 H     1 <1>   0.1500 
 34 H        1.7000     1.5360    -3.0430 H     1 <1>   0.1500 
 35 H       -2.4090    -1.5660     2.3920 H     1 <1>   0.0800 
 36 H       -0.8050    -1.0640     2.8350 H     1 <1>   0.0800 
 37 H        1.2320    -2.2270     1.5660 H     1 <1>   0.0800 
 38 H        0.8420    -3.4340     0.3760 H     1 <1>   0.0800 
 39 H        4.0690     1.9930    -3.2810 H     1 <1>   0.1500 
 40 H       -1.5400    -3.1800     0.7960 H     1 <1>   0.0800 
 41 H       -0.7430    -3.4480     2.3240 H     1 <1>   0.0800 
 42 H        4.1720     1.7500     2.2400 H     1 <1>   0.0800 
 43 H        5.1750     2.9240     1.4240 H     1 <1>   0.0800 
 44 H        5.5580     1.2230     1.3170 H     1 <1>   0.0800 
 45 H        5.9900     3.3200    -2.9360 H     1 <1>   0.0800 
 46 H        6.3990     1.6090    -3.0570 H     1 <1>   0.0800 
 47 H        7.6910     2.9520    -0.1610 H     1 <1>   0.3700 
 48 H        9.8560     4.3370    -0.2140 H     1 <1>   0.0800 
 49 H       10.4180     3.1140    -1.3240 H     1 <1>   0.0800 
 50 H       11.4320     1.1920    -0.4390 H     1 <1>   0.1500 
 51 H        9.2730     2.1030     3.7800 H     1 <1>   0.1500 
 52 H       11.9680    -0.2660     1.4930 H     1 <1>   0.1500 
 53 H       10.8350     0.2350     3.6520 H     1 <1>   0.1500 
@<TRIPOS>BOND
  1   1   2  2   
  2   1   3  2   
  3   1   4  am  
  4   1   5  1   
  5   4   6  1   
  6   4   7  1   
  7   5   8  ar  
  8   5   9  ar  
  9   6  10  1   
 10   6  29  1   
 11   6  30  1   
 12   7  11  1   
 13   7  31  1   
 14   7  32  1   
 15   8  12  ar  
 16   8  33  1   
 17   9  13  ar  
 18   9  34  1   
 19  10  14  1   
 20  10  35  1   
 21  10  36  1   
 22  11  14  1   
 23  11  37  1   
 24  11  38  1   
 25  12  15  ar  
 26  12  16  1   
 27  13  15  ar  
 28  13  39  1   
 29  14  40  1   
 30  14  41  1   
 31  15  17  1   
 32  16  42  1   
 33  16  43  1   
 34  16  44  1   
 35  17  18  1   
 36  18  19  1   
 37  18  45  1   
 38  18  46  1   
 39  19  20  2   
 40  19  21  am  
 41  21  22  1   
 42  21  47  1   
 43  22  23  1   
 44  22  48  1   
 45  22  49  1   
 46  23  24  ar  
 47  23  25  ar  
 48  24  26  ar  
 49  25  27  ar  
 50  25  50  1   
 51  26  28  ar  
 52  26  51  1   
 53  27  28  ar  
 54  27  52  1   
 55  28  53  1   
@<TRIPOS>SUBSTRUCTURE
  1 ****  12 GROUP 4 **** **** 0

# MOE 2024.06 (io_trps.svl 2023.06)
