@<TRIPOS>MOLECULE
1-(3-Chloro-4-methoxy-benzenesulfonyl)-piperidine-4-carboxylic acid (2-methoxy-e
48 49 1 0 0 
SMALL
USER_CHARGES


@<TRIPOS>ATOM
  1 CL       3.8680     2.5130     3.0360 Cl    1 <1>  -0.1770 
  2 C        3.4400     1.7940     1.4990 C.ar  1 <1>   0.1770 
  3 C        2.3340     2.2490     0.7910 C.ar  1 <1>   0.0820 
  4 C        4.2340     0.7730     1.0160 C.ar  1 <1>  -0.1500 
  5 O        1.5960     3.2590     1.3210 O.3   1 <1>  -0.3630 
  6 C        2.0390     1.6450    -0.4280 C.ar  1 <1>  -0.1500 
  7 C        3.9530     0.1710    -0.2040 C.ar  1 <1>  -0.0090 
  8 C        0.4440     3.7570     0.6780 C.3   1 <1>   0.0400 
  9 C        2.8410     0.6230    -0.9100 C.ar  1 <1>  -0.1500 
 10 S        5.0070    -1.1590    -0.8440 S.o2  1 <1>   1.4470 
 11 O        4.8920    -2.3080     0.0260 O.2   1 <1>  -0.6500 
 12 O        4.8020    -1.3160    -2.2680 O.2   1 <1>  -0.6500 
 13 N        6.5680    -0.5260    -0.6410 N.am  1 <1>  -0.8490 
 14 C        6.8580     0.5430    -1.6020 C.3   1 <1>   0.1960 
 15 C        7.5860    -1.5790    -0.7070 C.3   1 <1>   0.1960 
 16 C        8.1850     1.2130    -1.2440 C.3   1 <1>  -0.1600 
 17 C        8.9530    -1.0040    -0.3250 C.3   1 <1>  -0.1600 
 18 C        9.3330     0.1880    -1.2200 C.3   1 <1>  -0.0190 
 19 C       10.6560     0.8250    -0.8060 C.2   1 <1>   0.5690 
 20 O       11.5690     0.8330    -1.5950 O.2   1 <1>  -0.5700 
 21 N       10.7770     1.3650     0.4350 N.am  1 <1>  -0.7300 
 22 C       11.9800     2.0830     0.9330 C.3   1 <1>   0.1400 
 23 C       13.1140     1.1040     1.2370 C.3   1 <1>   0.1200 
 24 O       14.1280     1.7960     1.8990 O.3   1 <1>  -0.5600 
 25 C       15.2600     1.0280     2.1480 C.3   1 <1>   0.0400 
 26 H        5.0810     0.4450     1.5940 H     1 <1>   0.1500 
 27 H        1.1940     1.9550    -1.0140 H     1 <1>   0.1500 
 28 H        0.0320     4.5380     1.2910 H     1 <1>   0.0800 
 29 H       -0.2710     2.9600     0.5730 H     1 <1>   0.0800 
 30 H        0.7230     4.1570    -0.2810 H     1 <1>   0.0800 
 31 H        2.6010     0.1650    -1.8560 H     1 <1>   0.1500 
 32 H        6.0750     1.2830    -1.5740 H     1 <1>   0.0800 
 33 H        6.9040     0.1410    -2.6020 H     1 <1>   0.0800 
 34 H        7.6180    -1.9990    -1.7000 H     1 <1>   0.0800 
 35 H        7.3430    -2.3700    -0.0160 H     1 <1>   0.0800 
 36 H        8.0830     1.6880    -0.2850 H     1 <1>   0.0800 
 37 H        8.4040     1.9780    -1.9680 H     1 <1>   0.0800 
 38 H        9.6990    -1.7740    -0.4170 H     1 <1>   0.0800 
 39 H        8.9180    -0.7030     0.7070 H     1 <1>   0.0800 
 40 H        9.4610    -0.1830    -2.2230 H     1 <1>   0.0800 
 41 H        9.9820     1.3310     1.0750 H     1 <1>   0.3700 
 42 H       11.7230     2.6240     1.8260 H     1 <1>   0.0800 
 43 H       12.3110     2.7820     0.1830 H     1 <1>   0.0800 
 44 H       13.5080     0.7000     0.3200 H     1 <1>   0.0800 
 45 H       12.7680     0.3140     1.8790 H     1 <1>   0.0800 
 46 H       15.9750     1.6430     2.6640 H     1 <1>   0.0800 
 47 H       15.6760     0.6960     1.2120 H     1 <1>   0.0800 
 48 H       14.9920     0.1870     2.7640 H     1 <1>   0.0800 
@<TRIPOS>BOND
  1   1   2  1   
  2   2   3  ar  
  3   2   4  ar  
  4   3   5  1   
  5   3   6  ar  
  6   4   7  ar  
  7   4  26  1   
  8   5   8  1   
  9   6   9  ar  
 10   6  27  1   
 11   7   9  ar  
 12   7  10  1   
 13   8  28  1   
 14   8  29  1   
 15   8  30  1   
 16   9  31  1   
 17  10  11  2   
 18  10  12  2   
 19  10  13  am  
 20  13  14  1   
 21  13  15  1   
 22  14  16  1   
 23  14  32  1   
 24  14  33  1   
 25  15  17  1   
 26  15  34  1   
 27  15  35  1   
 28  16  18  1   
 29  16  36  1   
 30  16  37  1   
 31  17  18  1   
 32  17  38  1   
 33  17  39  1   
 34  18  19  1   
 35  18  40  1   
 36  19  20  2   
 37  19  21  am  
 38  21  22  1   
 39  21  41  1   
 40  22  23  1   
 41  22  42  1   
 42  22  43  1   
 43  23  24  1   
 44  23  44  1   
 45  23  45  1   
 46  24  25  1   
 47  25  46  1   
 48  25  47  1   
 49  25  48  1   
@<TRIPOS>SUBSTRUCTURE
  1 ****  13 GROUP 4 **** **** 0

# MOE 2024.06 (io_trps.svl 2023.06)
