@<TRIPOS>MOLECULE
8-(2-Hydroxy-ethylamino)-7-[2-(4-methoxy-phenyl)-ethyl]-3-methyl-3,7-dihydro-pur
48 50 1 0 0 
SMALL
USER_CHARGES


@<TRIPOS>ATOM
  1 O        0.8650     0.4440    -0.3730 O.2   1 <1>  -0.5750 
  2 C        1.9360     0.9750    -0.1980 C.2   1 <1>   0.6860 
  3 N        3.1330     0.2780    -0.2880 N.am  1 <1>  -0.4420 
  4 N        1.9590     2.3080     0.0940 N.am  1 <1>  -0.4950 
  5 C        4.3070     0.9880    -0.0830 C.2   1 <1>   0.4200 
  6 C        3.1560    -1.1810    -0.6020 C.3   1 <1>   0.0520 
  7 C        3.1050     3.0200     0.3040 C.2   1 <1>   0.6990 
  8 N        5.5850     0.5210    -0.1320 N.pl3 1 <1>  -0.7040 
  9 C        4.3470     2.3090     0.2060 C.2   1 <1>   0.2700 
 10 O        3.0270     4.2060     0.5580 O.2   1 <1>  -0.5750 
 11 C        6.4070     1.5350     0.1210 C.cat 1 <1>   1.0690 
 12 N        5.7080     2.6470     0.3390 N.pl3 1 <1>  -0.7680 
 13 N        7.7360     1.4470     0.1500 N.pl3 1 <1>  -0.7180 
 14 C        6.1840     4.0190     0.6620 C.3   1 <1>   0.3480 
 15 C        8.5690     0.2540    -0.1650 C.3   1 <1>   0.1600 
 16 C        6.2390     4.8820    -0.5990 C.3   1 <1>  -0.0250 
 17 C        9.1420    -0.3750     1.1090 C.3   1 <1>   0.1120 
 18 C        6.9690     6.1710    -0.2790 C.ar  1 <1>  -0.1510 
 19 O        9.5970    -1.6370     0.7780 O.3   1 <1>  -0.6840 
 20 C        6.3200     7.1740     0.4250 C.ar  1 <1>  -0.1580 
 21 C        8.2880     6.3540    -0.6690 C.ar  1 <1>  -0.1580 
 22 C        6.9890     8.3410     0.7460 C.ar  1 <1>  -0.1580 
 23 C        8.9570     7.5220    -0.3490 C.ar  1 <1>  -0.1580 
 24 C        8.3080     8.5240     0.3670 C.ar  1 <1>   0.0740 
 25 O        8.8910     9.6940     0.7260 O.3   1 <1>  -0.3690 
 26 C       10.2180     9.9940     0.3580 C.3   1 <1>   0.0310 
 27 H        1.0630     2.7900     0.1550 H     1 <1>   0.3640 
 28 H        2.1570    -1.5840    -0.6260 H     1 <1>   0.0720 
 29 H        3.7130    -1.7110     0.1500 H     1 <1>   0.0720 
 30 H        3.6080    -1.3400    -1.5650 H     1 <1>   0.0720 
 31 H        5.8810    -0.4330    -0.3210 H     1 <1>   0.4440 
 32 H        8.2670     2.2910     0.3640 H     1 <1>   0.4440 
 33 H        7.1650     3.9720     1.1040 H     1 <1>   0.0720 
 34 H        5.5270     4.4770     1.3840 H     1 <1>   0.0720 
 35 H        9.3800     0.5450    -0.8130 H     1 <1>   0.0720 
 36 H        7.9770    -0.4810    -0.6840 H     1 <1>   0.0720 
 37 H        5.2430     5.1110    -0.9340 H     1 <1>   0.0720 
 38 H        6.7550     4.3630    -1.3860 H     1 <1>   0.0720 
 39 H        8.3880    -0.4880     1.8680 H     1 <1>   0.0720 
 40 H        9.9730     0.1970     1.4860 H     1 <1>   0.0720 
 41 H       10.0820    -2.0530     1.5230 H     1 <1>   0.3940 
 42 H        5.2930     7.0600     0.7270 H     1 <1>   0.1420 
 43 H        8.8080     5.5960    -1.2280 H     1 <1>   0.1420 
 44 H        6.4910     9.1210     1.2930 H     1 <1>   0.1420 
 45 H        9.9760     7.6380    -0.6640 H     1 <1>   0.1420 
 46 H       10.4570    10.9720     0.7350 H     1 <1>   0.0720 
 47 H       10.2920     9.9880    -0.7150 H     1 <1>   0.0720 
 48 H       10.8750     9.2630     0.7940 H     1 <1>   0.0720 
@<TRIPOS>BOND
  1   1   2  2   
  2   2   3  am  
  3   2   4  am  
  4   3   5  1   
  5   3   6  1   
  6   4   7  am  
  7   4  27  1   
  8   5   8  1   
  9   5   9  2   
 10   6  28  1   
 11   6  29  1   
 12   6  30  1   
 13   7   9  1   
 14   7  10  2   
 15   8  11  ar  
 16   8  31  1   
 17   9  12  1   
 18  11  12  ar  
 19  11  13  ar  
 20  12  14  1   
 21  13  15  1   
 22  13  32  1   
 23  14  16  1   
 24  14  33  1   
 25  14  34  1   
 26  15  17  1   
 27  15  35  1   
 28  15  36  1   
 29  16  18  1   
 30  16  37  1   
 31  16  38  1   
 32  17  19  1   
 33  17  39  1   
 34  17  40  1   
 35  18  20  ar  
 36  18  21  ar  
 37  19  41  1   
 38  20  22  ar  
 39  20  42  1   
 40  21  23  ar  
 41  21  43  1   
 42  22  24  ar  
 43  22  44  1   
 44  23  24  ar  
 45  23  45  1   
 46  24  25  1   
 47  25  26  1   
 48  26  46  1   
 49  26  47  1   
 50  26  48  1   
@<TRIPOS>SUBSTRUCTURE
  1 ****  14 GROUP 4 **** **** 0

# MOE 2024.06 (io_trps.svl 2023.06)
