@<TRIPOS>MOLECULE
7-(2-Hydroxy-propyl)-3-methyl-8-pyrrolidin-1-yl-3,7-dihydro-purine-2,6-dione
41 43 1 0 0 
SMALL
USER_CHARGES


@<TRIPOS>ATOM
  1 O        0.9440     0.6770     1.0250 O.2   1 <1>  -0.5760 
  2 C        1.9970     1.1410     0.6530 C.2   1 <1>   0.6850 
  3 N        3.1840     0.4270     0.7090 N.am  1 <1>  -0.4430 
  4 N        2.0080     2.4130     0.1600 N.am  1 <1>  -0.4970 
  5 C        4.3350     1.0560     0.2560 C.2   1 <1>   0.4190 
  6 C        3.2260    -0.9650     1.2440 C.3   1 <1>   0.0500 
  7 C        3.1310     3.0440    -0.2920 C.2   1 <1>   0.6980 
  8 N        5.5930     0.5500     0.2190 N.pl3 1 <1>  -0.7050 
  9 C        4.3650     2.3150    -0.2340 C.2   1 <1>   0.2690 
 10 O        3.0300     4.1780    -0.7190 O.2   1 <1>  -0.5760 
 11 C        6.4160     1.4720    -0.2880 C.cat 1 <1>   1.0680 
 12 N        5.7070     2.5800    -0.5690 N.pl3 1 <1>  -0.7680 
 13 N        7.7280     1.2070    -0.4830 N.pl3 1 <1>  -0.5980 
 14 C        6.1880     3.9680    -0.8700 C.3   1 <1>   0.3460 
 15 C        8.4150    -0.0020     0.0420 C.3   1 <1>   0.1580 
 16 C        8.6900     2.0300    -1.2570 C.3   1 <1>   0.1580 
 17 C        6.6400     4.7430     0.3960 C.3   1 <1>   0.1910 
 18 C        9.8970     0.2240    -0.2260 C.3   1 <1>  -0.1690 
 19 C        9.9240     1.1560    -1.4290 C.3   1 <1>  -0.1690 
 20 O        7.5210     3.9760     1.1410 O.3   1 <1>  -0.6850 
 21 C        5.5000     5.1300     1.3380 C.3   1 <1>  -0.2490 
 22 H        1.1200     2.9100     0.1270 H     1 <1>   0.3620 
 23 H        2.2480    -1.2840     1.5620 H     1 <1>   0.0700 
 24 H        3.8880    -1.0110     2.0910 H     1 <1>   0.0700 
 25 H        3.5700    -1.6400     0.4810 H     1 <1>   0.0700 
 26 H        5.8890    -0.3750     0.5080 H     1 <1>   0.4430 
 27 H        5.4060     4.5250    -1.3550 H     1 <1>   0.0700 
 28 H        7.0020     3.9380    -1.5670 H     1 <1>   0.0700 
 29 H        8.0780    -0.8700    -0.5000 H     1 <1>   0.0700 
 30 H        8.2330    -0.1300     1.0960 H     1 <1>   0.0700 
 31 H        8.9500     2.9080    -0.6920 H     1 <1>   0.0700 
 32 H        8.2860     2.3080    -2.2150 H     1 <1>   0.0700 
 33 H        7.1610     5.6350     0.0900 H     1 <1>   0.0700 
 34 H       10.4200    -0.6980    -0.4100 H     1 <1>   0.0700 
 35 H       10.3410     0.7120     0.6250 H     1 <1>   0.0700 
 36 H       10.8270     1.7410    -1.4710 H     1 <1>   0.0700 
 37 H        9.8350     0.5870    -2.3390 H     1 <1>   0.0700 
 38 H        7.8030     4.4720     1.9380 H     1 <1>   0.3930 
 39 H        5.0240     4.2600     1.7530 H     1 <1>   0.0700 
 40 H        4.7620     5.7040     0.8050 H     1 <1>   0.0700 
 41 H        5.8710     5.7420     2.1400 H     1 <1>   0.0700 
@<TRIPOS>BOND
  1   1   2  2   
  2   2   3  am  
  3   2   4  am  
  4   3   5  1   
  5   3   6  1   
  6   4   7  am  
  7   4  22  1   
  8   5   8  1   
  9   5   9  2   
 10   6  23  1   
 11   6  24  1   
 12   6  25  1   
 13   7   9  1   
 14   7  10  2   
 15   8  11  ar  
 16   8  26  1   
 17   9  12  1   
 18  11  12  ar  
 19  11  13  ar  
 20  12  14  1   
 21  13  15  1   
 22  13  16  1   
 23  14  17  1   
 24  14  27  1   
 25  14  28  1   
 26  15  18  1   
 27  15  29  1   
 28  15  30  1   
 29  16  19  1   
 30  16  31  1   
 31  16  32  1   
 32  17  20  1   
 33  17  21  1   
 34  17  33  1   
 35  18  19  1   
 36  18  34  1   
 37  18  35  1   
 38  19  36  1   
 39  19  37  1   
 40  20  38  1   
 41  21  39  1   
 42  21  40  1   
 43  21  41  1   
@<TRIPOS>SUBSTRUCTURE
  1 ****  12 GROUP 4 **** **** 0

# MOE 2024.06 (io_trps.svl 2023.06)
