@<TRIPOS>MOLECULE
1-(4-Fluoro-phenyl)-2-(4-pyrimidin-2-yl-piperazin-1-yl)-ethanone
39 41 1 0 0 
SMALL
USER_CHARGES


@<TRIPOS>ATOM
  1 F       -1.8300     0.0310    -1.7800 F     1 <1>  -0.1900 
  2 C       -2.8540    -0.2310    -1.0180 C.ar  1 <1>   0.1900 
  3 C       -3.9320     0.6310    -1.0240 C.ar  1 <1>  -0.1500 
  4 C       -2.8320    -1.3630    -0.2290 C.ar  1 <1>  -0.1500 
  5 C       -5.0160     0.3470    -0.2120 C.ar  1 <1>  -0.1500 
  6 C       -3.9240    -1.6300     0.5770 C.ar  1 <1>  -0.1500 
  7 C       -5.0430    -0.7870     0.6150 C.ar  1 <1>   0.0860 
  8 C       -6.1580    -1.1090     1.4860 C.2   1 <1>   0.4230 
  9 O       -6.2420    -2.1600     2.0740 O.2   1 <1>  -0.5700 
 10 C       -7.2800    -0.0930     1.7210 C.3   1 <1>   0.1710 
 11 N       -8.1580     0.1330     0.5450 N.3   1 <1>  -0.8100 
 12 C       -9.1350     1.2120     0.8240 C.3   1 <1>   0.1100 
 13 C       -8.8820    -1.1140     0.1800 C.3   1 <1>   0.1100 
 14 C      -10.0750     1.4660    -0.3690 C.3   1 <1>   0.2090 
 15 C       -9.8410    -0.9160    -1.0110 C.3   1 <1>   0.2090 
 16 N      -10.7890     0.2080    -0.7430 N.pl3 1 <1>  -0.8380 
 17 C      -12.1290     0.0010    -0.4960 C.ar  1 <1>   0.7200 
 18 N      -12.6720    -1.1110    -0.9920 N.ar  1 <1>  -0.6200 
 19 N      -12.7700     0.9260     0.2200 N.ar  1 <1>  -0.6200 
 20 C      -13.9480    -1.2950    -0.7560 C.ar  1 <1>   0.1600 
 21 C      -14.0440     0.7160     0.4410 C.ar  1 <1>   0.1600 
 22 C      -14.6930    -0.3970    -0.0330 C.ar  1 <1>  -0.1500 
 23 H       -3.9180     1.5020    -1.6550 H     1 <1>   0.1500 
 24 H       -1.9780    -2.0170    -0.2490 H     1 <1>   0.1500 
 25 H       -5.8550     1.0200    -0.2330 H     1 <1>   0.1500 
 26 H       -3.9140    -2.5120     1.1950 H     1 <1>   0.1500 
 27 H       -6.8290     0.8400     2.0090 H     1 <1>   0.0800 
 28 H       -7.8780    -0.4320     2.5500 H     1 <1>   0.0800 
 29 H       -8.6080     2.1230     1.0450 H     1 <1>   0.0800 
 30 H       -9.7360     0.9550     1.6800 H     1 <1>   0.0800 
 31 H       -9.4550    -1.4640     1.0220 H     1 <1>   0.0800 
 32 H       -8.1750    -1.8810    -0.0800 H     1 <1>   0.0800 
 33 H       -9.4940     1.8010    -1.2100 H     1 <1>   0.0800 
 34 H      -10.7670     2.2520    -0.1230 H     1 <1>   0.0800 
 35 H      -10.3640    -1.8370    -1.1930 H     1 <1>   0.0800 
 36 H       -9.2680    -0.6890    -1.8920 H     1 <1>   0.0800 
 37 H      -14.4090    -2.1840    -1.1500 H     1 <1>   0.1500 
 38 H      -14.5850     1.4500     1.0140 H     1 <1>   0.1500 
 39 H      -15.7380    -0.5590     0.1530 H     1 <1>   0.1500 
@<TRIPOS>BOND
  1   1   2  1   
  2   2   3  ar  
  3   2   4  ar  
  4   3   5  ar  
  5   3  23  1   
  6   4   6  ar  
  7   4  24  1   
  8   5   7  ar  
  9   5  25  1   
 10   6   7  ar  
 11   6  26  1   
 12   7   8  1   
 13   8   9  2   
 14   8  10  1   
 15  10  11  1   
 16  10  27  1   
 17  10  28  1   
 18  11  12  1   
 19  11  13  1   
 20  12  14  1   
 21  12  29  1   
 22  12  30  1   
 23  13  15  1   
 24  13  31  1   
 25  13  32  1   
 26  14  16  1   
 27  14  33  1   
 28  14  34  1   
 29  15  16  1   
 30  15  35  1   
 31  15  36  1   
 32  16  17  1   
 33  17  18  ar  
 34  17  19  ar  
 35  18  20  ar  
 36  19  21  ar  
 37  20  22  ar  
 38  20  37  1   
 39  21  22  ar  
 40  21  38  1   
 41  22  39  1   
@<TRIPOS>SUBSTRUCTURE
  1 ****  11 GROUP 4 **** **** 0

# MOE 2024.06 (io_trps.svl 2023.06)
