@<TRIPOS>MOLECULE
NONAME
54 56 1 0 0 
SMALL
USER_CHARGES


@<TRIPOS>ATOM
  1 O        2.4150    -1.6380     2.3620 O.2   1 <1>  -0.5700 
  2 C        3.2090    -0.8700     1.8740 C.2   1 <1>   0.5690 
  3 N        3.7000     0.2260     2.5080 N.am  1 <1>  -0.5390 
  4 C        3.8300    -0.9600     0.4690 C.3   1 <1>   0.4810 
  5 C        4.6420     0.8540     1.7350 C.2   1 <1>  -0.0290 
  6 C        4.5200    -2.3170     0.2410 C.2   1 <1>  -0.1240 
  7 C        2.7470    -0.6480    -0.5700 C.ar  1 <1>  -0.1440 
  8 C        4.7970     0.2340     0.5380 C.2   1 <1>  -0.1240 
  9 C        5.3450     2.0670     2.3140 C.3   1 <1>  -0.1020 
 10 C        4.0710    -3.1200    -0.7730 C.2   1 <1>   0.1770 
 11 C        5.6000    -2.6190     1.1190 C.2   1 <1>   0.7060 
 12 C        2.4370    -1.5880    -1.5410 C.ar  1 <1>   0.0830 
 13 C        2.0590     0.5610    -0.5700 C.ar  1 <1>  -0.1500 
 14 C        5.6540     0.5030    -0.5730 C.2   1 <1>   0.7060 
 15 O        3.0730    -2.7760    -1.5920 O.3   1 <1>  -0.1590 
 16 N        4.5640    -4.3510    -1.0890 N.pl3 1 <1>  -0.9000 
 17 O        5.9110    -1.9330     2.0770 O.2   1 <1>  -0.5700 
 18 O        6.3680    -3.6970     0.8790 O.3   1 <1>  -0.4300 
 19 C        1.4650    -1.3310    -2.4940 C.ar  1 <1>  -0.1500 
 20 C        1.0880     0.8210    -1.5220 C.ar  1 <1>  -0.1500 
 21 O        6.4110     1.4510    -0.6110 O.2   1 <1>  -0.5700 
 22 O        5.6110    -0.3490    -1.6030 O.3   1 <1>  -0.4300 
 23 C        7.5260    -4.0020     1.6410 C.3   1 <1>   0.1200 
 24 C        0.7890    -0.1250    -2.4860 C.ar  1 <1>  -0.1500 
 25 C        6.3540    -0.3080    -2.8030 C.3   1 <1>   0.2000 
 26 C        8.6660    -3.0590     1.2510 C.3   1 <1>   0.1200 
 27 C        7.8480    -0.4770    -2.5140 C.3   1 <1>  -0.2400 
 28 C        6.0190     0.9540    -3.6010 C.3   1 <1>  -0.2400 
 29 O        9.8380    -3.5200     1.8450 O.3   1 <1>  -0.5600 
 30 C       10.9410    -2.7040     1.6170 C.3   1 <1>   0.0400 
 31 H        3.4570     0.4250     3.4800 H     1 <1>   0.3700 
 32 H        4.6260     2.8300     2.5510 H     1 <1>   0.0800 
 33 H        6.0570     2.4780     1.6230 H     1 <1>   0.0800 
 34 H        5.8680     1.7900     3.2110 H     1 <1>   0.0800 
 35 H        2.2670     1.3160     0.1690 H     1 <1>   0.1500 
 36 H        5.3400    -4.7770    -0.5660 H     1 <1>   0.4000 
 37 H        4.1620    -4.9240    -1.8360 H     1 <1>   0.4000 
 38 H        1.2410    -2.0760    -3.2360 H     1 <1>   0.1500 
 39 H        0.5630     1.7610    -1.5120 H     1 <1>   0.1500 
 40 H        7.8010    -5.0170     1.4170 H     1 <1>   0.0800 
 41 H        7.2930    -3.9150     2.6880 H     1 <1>   0.0800 
 42 H        0.0340     0.0760    -3.2260 H     1 <1>   0.1500 
 43 H        6.0260    -1.1600    -3.3740 H     1 <1>   0.0800 
 44 H        8.4690    -2.0620     1.6060 H     1 <1>   0.0800 
 45 H        8.8050    -3.0600     0.1840 H     1 <1>   0.0800 
 46 H        8.2440     0.3800    -2.0010 H     1 <1>   0.0800 
 47 H        8.3820    -0.5840    -3.4400 H     1 <1>   0.0800 
 48 H        8.0110    -1.3600    -1.9240 H     1 <1>   0.0800 
 49 H        6.3930     1.8350    -3.1130 H     1 <1>   0.0800 
 50 H        4.9550     1.0370    -3.7290 H     1 <1>   0.0800 
 51 H        6.4740     0.8950    -4.5730 H     1 <1>   0.0800 
 52 H       11.7900    -3.1430     2.1110 H     1 <1>   0.0800 
 53 H       10.7510    -1.7260     2.0260 H     1 <1>   0.0800 
 54 H       11.1270    -2.6430     0.5590 H     1 <1>   0.0800 
@<TRIPOS>BOND
  1   1   2  2   
  2   2   3  am  
  3   2   4  1   
  4   3   5  1   
  5   3  31  1   
  6   4   6  1   
  7   4   7  1   
  8   4   8  1   
  9   5   8  2   
 10   5   9  1   
 11   6  10  2   
 12   6  11  1   
 13   7  12  ar  
 14   7  13  ar  
 15   8  14  1   
 16   9  32  1   
 17   9  33  1   
 18   9  34  1   
 19  10  15  1   
 20  10  16  1   
 21  11  17  2   
 22  11  18  1   
 23  12  15  1   
 24  12  19  ar  
 25  13  20  ar  
 26  13  35  1   
 27  14  21  2   
 28  14  22  1   
 29  16  36  1   
 30  16  37  1   
 31  18  23  1   
 32  19  24  ar  
 33  19  38  1   
 34  20  24  ar  
 35  20  39  1   
 36  22  25  1   
 37  23  26  1   
 38  23  40  1   
 39  23  41  1   
 40  24  42  1   
 41  25  27  1   
 42  25  28  1   
 43  25  43  1   
 44  26  29  1   
 45  26  44  1   
 46  26  45  1   
 47  27  46  1   
 48  27  47  1   
 49  27  48  1   
 50  28  49  1   
 51  28  50  1   
 52  28  51  1   
 53  29  30  1   
 54  30  52  1   
 55  30  53  1   
 56  30  54  1   
@<TRIPOS>SUBSTRUCTURE
  1 ****   4 GROUP 4 **** **** 0

# MOE 2024.06 (io_trps.svl 2023.06)
