@<TRIPOS>MOLECULE
N-tert-Butyl-N'-ethyl-6-piperidin-1-yl-[1,3,5]triazine-2,4-diamine
46 47 1 0 0 
SMALL
USER_CHARGES


@<TRIPOS>ATOM
  1 N        0.2970    -0.0430     0.2130 N.ar  1 <1>  -0.6200 
  2 C        0.3540     1.1330    -0.3610 C.ar  1 <1>   0.7200 
  3 C        1.4590    -0.5590     0.4840 C.ar  1 <1>   0.7200 
  4 N        1.4560     1.7750    -0.6610 N.ar  1 <1>  -0.6200 
  5 N       -0.8430     1.7460    -0.6780 N.pl3 1 <1>  -0.8380 
  6 N        2.6230    -0.0240     0.2470 N.ar  1 <1>  -0.6200 
  7 N        1.3900    -1.7700     1.0870 N.pl3 1 <1>  -0.8690 
  8 C        2.5400     1.1390    -0.3330 C.ar  1 <1>   0.7200 
  9 C       -0.9540     3.2030    -0.9710 C.3   1 <1>   0.2090 
 10 C       -2.1420     1.0160    -0.7250 C.3   1 <1>   0.2090 
 11 C        2.2950    -2.9080     0.9420 C.3   1 <1>   0.3690 
 12 N        3.6880     1.7890    -0.6320 N.pl3 1 <1>  -0.8690 
 13 C       -1.9260     3.8500     0.0210 C.3   1 <1>  -0.1600 
 14 C       -3.1140     1.6420     0.2790 C.3   1 <1>  -0.1600 
 15 C        2.6320    -3.1450    -0.5310 C.3   1 <1>  -0.2400 
 16 C        1.5390    -4.1160     1.4890 C.3   1 <1>  -0.2400 
 17 C        3.5520    -2.6760     1.7780 C.3   1 <1>  -0.2400 
 18 C        4.9730     1.5130     0.0270 C.3   1 <1>   0.2090 
 19 C       -3.2920     3.1470     0.0320 C.3   1 <1>  -0.1600 
 20 C        6.0130     2.4780    -0.5250 C.3   1 <1>  -0.2400 
 21 H        0.4220    -2.0510     1.2030 H     1 <1>   0.4000 
 22 H       -1.3170     3.3300    -1.9770 H     1 <1>   0.0800 
 23 H       -0.0010     3.6950    -0.8980 H     1 <1>   0.0800 
 24 H       -2.0180    -0.0300    -0.5050 H     1 <1>   0.0800 
 25 H       -2.5470     1.0930    -1.7190 H     1 <1>   0.0800 
 26 H        3.5280     2.7500    -0.9250 H     1 <1>   0.4000 
 27 H       -2.0540     4.8870    -0.2320 H     1 <1>   0.0800 
 28 H       -1.4890     3.8040     1.0030 H     1 <1>   0.0800 
 29 H       -2.7310     1.4780     1.2720 H     1 <1>   0.0800 
 30 H       -4.0660     1.1470     0.2080 H     1 <1>   0.0800 
 31 H        1.7320    -3.2420    -1.1110 H     1 <1>   0.0800 
 32 H        3.2070    -4.0460    -0.6380 H     1 <1>   0.0800 
 33 H        3.2160    -2.3340    -0.9250 H     1 <1>   0.0800 
 34 H        2.1540    -4.9950     1.4310 H     1 <1>   0.0800 
 35 H        0.6460    -4.2930     0.9170 H     1 <1>   0.0800 
 36 H        1.2750    -3.9570     2.5190 H     1 <1>   0.0800 
 37 H        4.1750    -3.5510     1.7650 H     1 <1>   0.0800 
 38 H        3.2860    -2.4570     2.7960 H     1 <1>   0.0800 
 39 H        4.1240    -1.8560     1.3850 H     1 <1>   0.0800 
 40 H        5.2650     0.4950    -0.1710 H     1 <1>   0.0800 
 41 H        4.8670     1.6410     1.0920 H     1 <1>   0.0800 
 42 H       -3.7780     3.2980    -0.9160 H     1 <1>   0.0800 
 43 H       -3.9150     3.5720     0.8000 H     1 <1>   0.0800 
 44 H        6.1110     2.3460    -1.5880 H     1 <1>   0.0800 
 45 H        6.9650     2.2800    -0.0670 H     1 <1>   0.0800 
 46 H        5.7340     3.4930    -0.3090 H     1 <1>   0.0800 
@<TRIPOS>BOND
  1   1   2  ar  
  2   1   3  ar  
  3   2   4  ar  
  4   2   5  1   
  5   3   6  ar  
  6   3   7  1   
  7   4   8  ar  
  8   5   9  1   
  9   5  10  1   
 10   6   8  ar  
 11   7  11  1   
 12   7  21  1   
 13   8  12  1   
 14   9  13  1   
 15   9  22  1   
 16   9  23  1   
 17  10  14  1   
 18  10  24  1   
 19  10  25  1   
 20  11  15  1   
 21  11  16  1   
 22  11  17  1   
 23  12  18  1   
 24  12  26  1   
 25  13  19  1   
 26  13  27  1   
 27  13  28  1   
 28  14  19  1   
 29  14  29  1   
 30  14  30  1   
 31  15  31  1   
 32  15  32  1   
 33  15  33  1   
 34  16  34  1   
 35  16  35  1   
 36  16  36  1   
 37  17  37  1   
 38  17  38  1   
 39  17  39  1   
 40  18  20  1   
 41  18  40  1   
 42  18  41  1   
 43  19  42  1   
 44  19  43  1   
 45  20  44  1   
 46  20  45  1   
 47  20  46  1   
@<TRIPOS>SUBSTRUCTURE
  1 ****   1 GROUP 4 **** **** 0

# MOE 2024.06 (io_trps.svl 2023.06)
