@<TRIPOS>MOLECULE
N-(2-Ethyl-2H-tetrazol-5-yl)-2-(4-isopropyl-phenoxy)-acetamide
40 41 1 0 0 
SMALL
USER_CHARGES


@<TRIPOS>ATOM
  1 O       -0.1340    -0.2490    -2.5210 O.2   1 <1>  -0.5700 
  2 C        0.1770    -0.8810    -1.5400 C.2   1 <1>   0.5690 
  3 N       -0.7010    -1.2700    -0.5790 N.am  1 <1>  -0.4930 
  4 C        1.6420    -1.2610    -1.3780 C.3   1 <1>   0.1810 
  5 C       -2.0650    -1.0730    -0.4560 C.2   1 <1>   0.5790 
  6 O        1.8530    -2.0020    -0.1830 O.3   1 <1>  -0.3630 
  7 N       -2.8370    -0.4130    -1.3170 N.2   1 <1>  -0.2270 
  8 N       -2.6830    -1.5470     0.5570 N.2   1 <1>  -0.7070 
  9 C        3.0900    -2.4420     0.1580 C.ar  1 <1>   0.0830 
 10 N       -4.0160    -0.4620    -0.8350 N.2   1 <1>  -0.4180 
 11 N       -3.9130    -1.1440     0.2920 N.pl3 1 <1>   0.5800 
 12 C        3.1950    -3.1560     1.3390 C.ar  1 <1>  -0.1500 
 13 C        4.2320    -2.2170    -0.6050 C.ar  1 <1>  -0.1500 
 14 C       -5.0630    -1.4350     1.1730 C.3   1 <1>   0.0960 
 15 C        4.4200    -3.6410     1.7590 C.ar  1 <1>  -0.1500 
 16 C        5.4560    -2.7040    -0.1800 C.ar  1 <1>  -0.1500 
 17 C       -5.1810    -0.4100     2.3100 C.3   1 <1>  -0.2400 
 18 C        5.5640    -3.4200     1.0040 C.ar  1 <1>  -0.1430 
 19 C        6.9250    -3.9480     1.4530 C.3   1 <1>   0.0630 
 20 C        6.9170    -5.4780     1.5360 C.3   1 <1>  -0.2400 
 21 C        7.3340    -3.3330     2.7950 C.3   1 <1>  -0.2400 
 22 H       -0.3100    -1.7990     0.1970 H     1 <1>   0.3700 
 23 H        2.2370    -0.3670    -1.3340 H     1 <1>   0.0800 
 24 H        1.9450    -1.8660    -2.2120 H     1 <1>   0.0800 
 25 H        2.3150    -3.3320     1.9300 H     1 <1>   0.1500 
 26 H        4.1960    -1.6690    -1.5270 H     1 <1>   0.1500 
 27 H       -4.9320    -2.4220     1.5770 H     1 <1>   0.0800 
 28 H       -5.9560    -1.4250     0.5740 H     1 <1>   0.0800 
 29 H        4.4790    -4.1930     2.6800 H     1 <1>   0.1500 
 30 H        6.3300    -2.5220    -0.7800 H     1 <1>   0.1500 
 31 H       -4.2930    -0.4250     2.9180 H     1 <1>   0.0800 
 32 H       -6.0250    -0.6490     2.9320 H     1 <1>   0.0800 
 33 H       -5.3200     0.5790     1.9090 H     1 <1>   0.0800 
 34 H        7.6640    -3.6640     0.7240 H     1 <1>   0.0800 
 35 H        6.2290    -5.8180     2.2890 H     1 <1>   0.0800 
 36 H        7.8990    -5.8430     1.7770 H     1 <1>   0.0800 
 37 H        6.6200    -5.8930     0.5890 H     1 <1>   0.0800 
 38 H        6.6550    -3.6270     3.5750 H     1 <1>   0.0800 
 39 H        7.3270    -2.2600     2.7220 H     1 <1>   0.0800 
 40 H        8.3250    -3.6510     3.0640 H     1 <1>   0.0800 
@<TRIPOS>BOND
  1   1   2  2   
  2   2   3  am  
  3   2   4  1   
  4   3   5  1   
  5   3  22  1   
  6   4   6  1   
  7   4  23  1   
  8   4  24  1   
  9   5   7  1   
 10   5   8  2   
 11   6   9  1   
 12   7  10  2   
 13   8  11  1   
 14   9  12  ar  
 15   9  13  ar  
 16  10  11  1   
 17  11  14  1   
 18  12  15  ar  
 19  12  25  1   
 20  13  16  ar  
 21  13  26  1   
 22  14  17  1   
 23  14  27  1   
 24  14  28  1   
 25  15  18  ar  
 26  15  29  1   
 27  16  18  ar  
 28  16  30  1   
 29  17  31  1   
 30  17  32  1   
 31  17  33  1   
 32  18  19  1   
 33  19  20  1   
 34  19  21  1   
 35  19  34  1   
 36  20  35  1   
 37  20  36  1   
 38  20  37  1   
 39  21  38  1   
 40  21  39  1   
 41  21  40  1   
@<TRIPOS>SUBSTRUCTURE
  1 ****   6 GROUP 4 **** **** 0

# MOE 2024.06 (io_trps.svl 2023.06)
