@<TRIPOS>MOLECULE
4-Methoxy-3-(morpholine-4-sulfonyl)-phenylamine
34 35 1 0 0 
SMALL
USER_CHARGES


@<TRIPOS>ATOM
  1 S        0.2190     0.0950    -1.1900 S.o2  1 <1>   1.4470 
  2 O        0.7020     1.2250    -1.9560 O.2   1 <1>  -0.6500 
  3 O       -0.0610    -1.1270    -1.9140 O.2   1 <1>  -0.6500 
  4 N        1.4430    -0.2590    -0.0700 N.am  1 <1>  -0.8490 
  5 C       -1.1880     0.6550    -0.1910 C.ar  1 <1>  -0.0090 
  6 C        2.7400    -0.4190    -0.7460 C.3   1 <1>   0.1960 
  7 C        1.1590    -1.4660     0.7250 C.3   1 <1>   0.1960 
  8 C       -2.1050    -0.2290     0.3750 C.ar  1 <1>   0.0820 
  9 C       -1.3730     2.0110     0.0500 C.ar  1 <1>  -0.1500 
 10 C        3.8570    -0.7680     0.2550 C.3   1 <1>   0.1200 
 11 C        2.3180    -1.7920     1.6850 C.3   1 <1>   0.1200 
 12 O       -1.9710    -1.5640     0.2120 O.3   1 <1>  -0.3630 
 13 C       -3.1630     0.2300     1.1470 C.ar  1 <1>  -0.1500 
 14 C       -2.4330     2.4870     0.8080 C.ar  1 <1>   0.1000 
 15 O        3.5240    -1.9130     0.9860 O.3   1 <1>  -0.5600 
 16 C       -2.8270    -2.1600    -0.7390 C.3   1 <1>   0.0400 
 17 C       -3.3270     1.5840     1.3600 C.ar  1 <1>  -0.1500 
 18 N       -2.5930     3.8460     1.0120 N.pl3 1 <1>  -0.9000 
 19 H        3.0000     0.4980    -1.2470 H     1 <1>   0.0800 
 20 H        2.6760    -1.1970    -1.4880 H     1 <1>   0.0800 
 21 H        0.9920    -2.3120     0.0780 H     1 <1>   0.0800 
 22 H        0.2710    -1.3120     1.3120 H     1 <1>   0.0800 
 23 H       -0.6750     2.7180    -0.3620 H     1 <1>   0.1500 
 24 H        4.0150     0.0460     0.9400 H     1 <1>   0.0800 
 25 H        4.7750    -0.9660    -0.2680 H     1 <1>   0.0800 
 26 H        2.1330    -2.7260     2.1870 H     1 <1>   0.0800 
 27 H        2.4240    -1.0160     2.4230 H     1 <1>   0.0800 
 28 H       -3.8480    -0.4750     1.5830 H     1 <1>   0.1500 
 29 H       -3.8470    -2.0400    -0.4210 H     1 <1>   0.0800 
 30 H       -2.5800    -3.2040    -0.8050 H     1 <1>   0.0800 
 31 H       -2.6710    -1.6890    -1.6940 H     1 <1>   0.0800 
 32 H       -4.1420     1.9420     1.9610 H     1 <1>   0.1500 
 33 H       -3.5450     4.1610     1.2180 H     1 <1>   0.4000 
 34 H       -2.1340     4.4580     0.3300 H     1 <1>   0.4000 
@<TRIPOS>BOND
  1   1   2  2   
  2   1   3  2   
  3   1   4  am  
  4   1   5  1   
  5   4   6  1   
  6   4   7  1   
  7   5   8  ar  
  8   5   9  ar  
  9   6  10  1   
 10   6  19  1   
 11   6  20  1   
 12   7  11  1   
 13   7  21  1   
 14   7  22  1   
 15   8  12  1   
 16   8  13  ar  
 17   9  14  ar  
 18   9  23  1   
 19  10  15  1   
 20  10  24  1   
 21  10  25  1   
 22  11  15  1   
 23  11  26  1   
 24  11  27  1   
 25  12  16  1   
 26  13  17  ar  
 27  13  28  1   
 28  14  17  ar  
 29  14  18  1   
 30  16  29  1   
 31  16  30  1   
 32  16  31  1   
 33  17  32  1   
 34  18  33  1   
 35  18  34  1   
@<TRIPOS>SUBSTRUCTURE
  1 ****   5 GROUP 4 **** **** 0

# MOE 2024.06 (io_trps.svl 2023.06)
