@<TRIPOS>MOLECULE
2,2-Dimethyl-N-(3-o-tolyl-[1,2,4]oxadiazol-5-ylmethyl)-propionamide
39 40 1 0 0 
SMALL
USER_CHARGES


@<TRIPOS>ATOM
  1 O       -3.2530     0.8410    -1.8780 O.2   1 <1>  -0.5700 
  2 C       -3.2210     0.3370    -0.7820 C.2   1 <1>   0.5690 
  3 N       -4.3780    -0.2270    -0.3520 N.am  1 <1>  -0.7300 
  4 C       -1.8930     0.3760     0.0360 C.3   1 <1>   0.0610 
  5 C       -4.7550    -0.9750     0.8740 C.3   1 <1>   0.3200 
  6 C       -2.0540     1.2020     1.3290 C.3   1 <1>  -0.2400 
  7 C       -0.7680     1.0520    -0.7800 C.3   1 <1>  -0.2400 
  8 C       -1.3860    -1.0410     0.3800 C.3   1 <1>  -0.2400 
  9 C       -5.0560    -2.4340     0.5660 C.2   1 <1>   0.2980 
 10 O       -4.0660    -3.2200     0.2310 O.3   1 <1>  -0.0190 
 11 N       -6.1990    -2.9850     0.6060 N.2   1 <1>  -0.5650 
 12 N       -4.6260    -4.3730     0.0480 N.2   1 <1>  -0.4100 
 13 C       -5.8880    -4.2380     0.2590 C.2   1 <1>   0.4620 
 14 C       -6.8670    -5.3070     0.1700 C.ar  1 <1>   0.0540 
 15 C       -8.0800    -5.1990    -0.5270 C.ar  1 <1>  -0.1440 
 16 C       -6.5920    -6.5190     0.8060 C.ar  1 <1>  -0.1500 
 17 C       -8.9680    -6.2620    -0.5540 C.ar  1 <1>  -0.1500 
 18 C       -8.4550    -3.9280    -1.2800 C.3   1 <1>  -0.0970 
 19 C       -7.4800    -7.5770     0.7740 C.ar  1 <1>  -0.1500 
 20 C       -8.6750    -7.4480     0.0930 C.ar  1 <1>  -0.1500 
 21 H       -5.1220    -0.1870    -1.0520 H     1 <1>   0.3700 
 22 H       -5.6380    -0.5240     1.2910 H     1 <1>   0.0800 
 23 H       -3.9850    -0.9280     1.6160 H     1 <1>   0.0800 
 24 H       -2.7720     0.7700     1.9970 H     1 <1>   0.0800 
 25 H       -2.3810     2.1980     1.0860 H     1 <1>   0.0800 
 26 H       -1.1160     1.2730     1.8510 H     1 <1>   0.0800 
 27 H       -1.0470     2.0590    -1.0400 H     1 <1>   0.0800 
 28 H       -0.5910     0.5110    -1.6930 H     1 <1>   0.0800 
 29 H        0.1520     1.0900    -0.2240 H     1 <1>   0.0800 
 30 H       -2.0270    -1.5450     1.0740 H     1 <1>   0.0800 
 31 H       -0.4060    -0.9950     0.8220 H     1 <1>   0.0800 
 32 H       -1.3240    -1.6350    -0.5150 H     1 <1>   0.0800 
 33 H       -5.6630    -6.6290     1.3380 H     1 <1>   0.1500 
 34 H       -9.9010    -6.1760    -1.0830 H     1 <1>   0.1500 
 35 H       -8.7250    -3.1560    -0.5810 H     1 <1>   0.0800 
 36 H       -9.2870    -4.0990    -1.9380 H     1 <1>   0.0800 
 37 H       -7.6250    -3.5870    -1.8730 H     1 <1>   0.0800 
 38 H       -7.2420    -8.4980     1.2760 H     1 <1>   0.1500 
 39 H       -9.3720    -8.2670     0.0650 H     1 <1>   0.1500 
@<TRIPOS>BOND
  1   1   2  2   
  2   2   3  am  
  3   2   4  1   
  4   3   5  1   
  5   3  21  1   
  6   4   6  1   
  7   4   7  1   
  8   4   8  1   
  9   5   9  1   
 10   5  22  1   
 11   5  23  1   
 12   6  24  1   
 13   6  25  1   
 14   6  26  1   
 15   7  27  1   
 16   7  28  1   
 17   7  29  1   
 18   8  30  1   
 19   8  31  1   
 20   8  32  1   
 21   9  10  1   
 22   9  11  2   
 23  10  12  1   
 24  11  13  1   
 25  12  13  2   
 26  13  14  1   
 27  14  15  ar  
 28  14  16  ar  
 29  15  17  ar  
 30  15  18  1   
 31  16  19  ar  
 32  16  33  1   
 33  17  20  ar  
 34  17  34  1   
 35  18  35  1   
 36  18  36  1   
 37  18  37  1   
 38  19  20  ar  
 39  19  38  1   
 40  20  39  1   
@<TRIPOS>SUBSTRUCTURE
  1 ****   9 GROUP 4 **** **** 0

# MOE 2024.06 (io_trps.svl 2023.06)
