@<TRIPOS>MOLECULE
1,7-Dimethyl-3-(1-methyl-2-oxo-propyl)-8-o-tolyl-1H,8H-imidazo[2,1-f]purine-2,4-
50 53 1 0 0 
SMALL
USER_CHARGES


@<TRIPOS>ATOM
  1 O        0.9520    -0.1630    -0.4200 O.2   1 <1>  -0.5750 
  2 C        1.8980     0.5950    -0.3470 C.2   1 <1>   0.6860 
  3 N        1.7250     1.9620    -0.5620 N.am  1 <1>  -0.4260 
  4 N        3.1550     0.0840    -0.0460 N.am  1 <1>  -0.4420 
  5 C        2.8080     2.8280    -0.5250 C.2   1 <1>   0.6990 
  6 C        0.3490     2.5510    -0.4290 C.3   1 <1>   0.2750 
  7 C        4.2060     0.9680     0.0780 C.2   1 <1>   0.4200 
  8 C        3.3320    -1.3750     0.2210 C.3   1 <1>   0.0520 
  9 O        2.6840     4.0060    -0.8140 O.2   1 <1>  -0.5750 
 10 C        4.0770     2.2970    -0.1530 C.2   1 <1>   0.2700 
 11 C       -0.2350     2.1930     0.9490 C.2   1 <1>   0.4430 
 12 C       -0.5070     2.2040    -1.6620 C.3   1 <1>  -0.2470 
 13 N        5.4970     0.6940     0.4320 N.pl3 1 <1>  -0.7040 
 14 N        5.3450     2.8580     0.0620 N.pl3 1 <1>  -0.6330 
 15 O        0.4620     2.2390     1.9220 O.2   1 <1>  -0.5750 
 16 C       -1.6920     1.7910     1.0700 C.3   1 <1>  -0.1860 
 17 C        6.1440     1.8620     0.4130 C.cat 1 <1>   1.0690 
 18 C        6.1100     4.0100     0.0790 C.2   1 <1>   0.2220 
 19 N        7.3890     2.2810     0.6570 N.pl3 1 <1>  -0.5550 
 20 C        7.3620     3.6540     0.4430 C.2   1 <1>   0.1580 
 21 C        8.4690     1.4640     1.0280 C.ar  1 <1>   0.3050 
 22 C        8.6040     4.5080     0.6170 C.3   1 <1>  -0.1100 
 23 C        9.1950     0.7520     0.0740 C.ar  1 <1>  -0.1510 
 24 C        8.7950     1.3480     2.3720 C.ar  1 <1>  -0.1570 
 25 C       10.2270    -0.0760     0.4880 C.ar  1 <1>  -0.1570 
 26 C        8.8950     0.8600    -1.4180 C.3   1 <1>  -0.1040 
 27 C        9.8260     0.5210     2.7750 C.ar  1 <1>  -0.1570 
 28 C       10.5390    -0.1930     1.8310 C.ar  1 <1>  -0.1570 
 29 H        0.4230     3.6240    -0.4230 H     1 <1>   0.0720 
 30 H        2.6320    -1.9490    -0.3640 H     1 <1>   0.0720 
 31 H        3.1530    -1.5760     1.2630 H     1 <1>   0.0720 
 32 H        4.3240    -1.6940    -0.0420 H     1 <1>   0.0720 
 33 H       -0.7420     1.1560    -1.7030 H     1 <1>   0.0720 
 34 H        0.0120     2.4840    -2.5610 H     1 <1>   0.0720 
 35 H       -1.4320     2.7520    -1.6320 H     1 <1>   0.0720 
 36 H        5.9160    -0.1970     0.6910 H     1 <1>   0.4450 
 37 H       -1.8680     0.8810     0.5270 H     1 <1>   0.0720 
 38 H       -2.3270     2.5690     0.6880 H     1 <1>   0.0720 
 39 H       -1.9370     1.6240     2.1030 H     1 <1>   0.0720 
 40 H        5.7040     4.9800    -0.1670 H     1 <1>   0.1430 
 41 H        8.9600     4.4410     1.6300 H     1 <1>   0.0720 
 42 H        8.3870     5.5380     0.3970 H     1 <1>   0.0720 
 43 H        9.3820     4.1710    -0.0440 H     1 <1>   0.0720 
 44 H        8.2440     1.9040     3.1090 H     1 <1>   0.1430 
 45 H       10.8020    -0.6370    -0.2300 H     1 <1>   0.1430 
 46 H        7.9570     0.3890    -1.6480 H     1 <1>   0.0720 
 47 H        9.6630     0.3800    -1.9980 H     1 <1>   0.0720 
 48 H        8.8540     1.8920    -1.7190 H     1 <1>   0.0720 
 49 H       10.0790     0.4310     3.8190 H     1 <1>   0.1430 
 50 H       11.3440    -0.8390     2.1410 H     1 <1>   0.1430 
@<TRIPOS>BOND
  1   1   2  2   
  2   2   3  am  
  3   2   4  am  
  4   3   5  am  
  5   3   6  1   
  6   4   7  1   
  7   4   8  1   
  8   5   9  2   
  9   5  10  1   
 10   6  11  1   
 11   6  12  1   
 12   6  29  1   
 13   7  10  2   
 14   7  13  1   
 15   8  30  1   
 16   8  31  1   
 17   8  32  1   
 18  10  14  1   
 19  11  15  2   
 20  11  16  1   
 21  12  33  1   
 22  12  34  1   
 23  12  35  1   
 24  13  17  ar  
 25  13  36  1   
 26  14  17  ar  
 27  14  18  1   
 28  16  37  1   
 29  16  38  1   
 30  16  39  1   
 31  17  19  ar  
 32  18  20  2   
 33  18  40  1   
 34  19  20  1   
 35  19  21  1   
 36  20  22  1   
 37  21  23  ar  
 38  21  24  ar  
 39  22  41  1   
 40  22  42  1   
 41  22  43  1   
 42  23  25  ar  
 43  23  26  1   
 44  24  27  ar  
 45  24  44  1   
 46  25  28  ar  
 47  25  45  1   
 48  26  46  1   
 49  26  47  1   
 50  26  48  1   
 51  27  28  ar  
 52  27  49  1   
 53  28  50  1   
@<TRIPOS>SUBSTRUCTURE
  1 ****   7 GROUP 4 **** **** 0

# MOE 2024.06 (io_trps.svl 2023.06)
