@<TRIPOS>MOLECULE
(8-Cyclohexyl-1,6-dimethyl-2,4-dioxo-1,4,5,6,7,8-hexahydro-2H-1,3,4b,8,9-pentaaz
59 62 1 0 0 
SMALL
USER_CHARGES


@<TRIPOS>ATOM
  1 O        0.6760    -0.1380     0.2550 O.2   1 <1>  -0.5740 
  2 C        1.6690     0.5090     0.5160 C.2   1 <1>   0.6870 
  3 N        1.5450     1.7210     1.1820 N.am  1 <1>  -0.4250 
  4 N        2.9230     0.0410     0.1460 N.am  1 <1>  -0.4410 
  5 C        2.6540     2.4920     1.4860 C.2   1 <1>   0.7000 
  6 C        0.1990     2.3870     1.2030 C.3   1 <1>   0.1950 
  7 C        4.0170     0.8470     0.4010 C.2   1 <1>   0.4210 
  8 C        3.0700    -1.2540    -0.5810 C.3   1 <1>   0.0530 
  9 O        2.5330     3.5300     2.1160 O.2   1 <1>  -0.5740 
 10 C        3.9340     2.0310     1.0440 C.2   1 <1>   0.2720 
 11 C       -0.0290     3.2200    -0.0550 C.2   1 <1>   0.6560 
 12 N        5.3210     0.6210     0.0750 N.pl3 1 <1>  -0.7030 
 13 N        5.2440     2.5310     1.1040 N.pl3 1 <1>  -0.7670 
 14 O        0.8470     3.3950    -0.8690 O.2   1 <1>  -0.5740 
 15 O       -1.2420     3.7370    -0.1920 O.3   1 <1>  -0.4350 
 16 C        6.0450     1.6540     0.5090 C.cat 1 <1>   1.0690 
 17 C        5.6800     3.8150     1.6900 C.3   1 <1>   0.3490 
 18 C       -1.5910     4.5210    -1.3090 C.3   1 <1>   0.1140 
 19 N        7.3750     1.8380     0.3960 N.pl3 1 <1>  -0.5960 
 20 C        7.0000     4.2420     1.0280 C.3   1 <1>  -0.0870 
 21 C       -3.0440     4.9550    -1.1470 C.3   1 <1>  -0.2460 
 22 C        8.3400     0.8720    -0.2010 C.3   1 <1>   0.2420 
 23 C        8.0020     3.0730     0.9580 C.3   1 <1>   0.1620 
 24 C        7.6200     5.4400     1.7630 C.3   1 <1>  -0.2460 
 25 C        8.0710     0.6750    -1.7020 C.3   1 <1>  -0.1660 
 26 C        8.3570    -0.4570     0.5730 C.3   1 <1>  -0.1660 
 27 C        9.0710    -0.3170    -2.3090 C.3   1 <1>  -0.1660 
 28 C        9.3560    -1.4380    -0.0530 C.3   1 <1>  -0.1660 
 29 C        9.0700    -1.6480    -1.5460 C.3   1 <1>  -0.1660 
 30 H        0.1190     3.0300     2.0610 H     1 <1>   0.0730 
 31 H       -0.5810     1.6510     1.2770 H     1 <1>   0.0730 
 32 H        2.2350    -1.9020    -0.3700 H     1 <1>   0.0730 
 33 H        3.9690    -1.7590    -0.2720 H     1 <1>   0.0730 
 34 H        3.1040    -1.0730    -1.6410 H     1 <1>   0.0730 
 35 H        5.7120    -0.1730    -0.4240 H     1 <1>   0.4460 
 36 H        5.8150     3.6910     2.7510 H     1 <1>   0.0730 
 37 H        4.9280     4.5700     1.5270 H     1 <1>   0.0730 
 38 H       -1.4630     3.9260    -2.1980 H     1 <1>   0.0730 
 39 H       -0.9350     5.3750    -1.3470 H     1 <1>   0.0730 
 40 H        6.7820     4.5590     0.0220 H     1 <1>   0.0730 
 41 H       -3.6860     4.0940    -1.1020 H     1 <1>   0.0730 
 42 H       -3.3370     5.5560    -1.9880 H     1 <1>   0.0730 
 43 H       -3.1600     5.5390    -0.2520 H     1 <1>   0.0730 
 44 H        9.3320     1.2860    -0.1180 H     1 <1>   0.0730 
 45 H        8.8340     3.3720     0.3410 H     1 <1>   0.0730 
 46 H        8.3800     2.8510     1.9430 H     1 <1>   0.0730 
 47 H        7.8670     5.1860     2.7800 H     1 <1>   0.0730 
 48 H        6.9330     6.2690     1.7770 H     1 <1>   0.0730 
 49 H        8.5180     5.7620     1.2650 H     1 <1>   0.0730 
 50 H        8.1690     1.6190    -2.2110 H     1 <1>   0.0730 
 51 H        7.0820     0.2970    -1.8760 H     1 <1>   0.0730 
 52 H        7.3920    -0.9250     0.5710 H     1 <1>   0.0730 
 53 H        8.6450    -0.2750     1.5940 H     1 <1>   0.0730 
 54 H       10.0620     0.1050    -2.2800 H     1 <1>   0.0730 
 55 H        8.8250    -0.4950    -3.3430 H     1 <1>   0.0730 
 56 H        9.3070    -2.3850     0.4590 H     1 <1>   0.0730 
 57 H       10.3580    -1.0580     0.0640 H     1 <1>   0.0730 
 58 H        9.8200    -2.2990    -1.9640 H     1 <1>   0.0730 
 59 H        8.1170    -2.1340    -1.6670 H     1 <1>   0.0730 
@<TRIPOS>BOND
  1   1   2  2   
  2   2   3  am  
  3   2   4  am  
  4   3   5  am  
  5   3   6  1   
  6   4   7  1   
  7   4   8  1   
  8   5   9  2   
  9   5  10  1   
 10   6  11  1   
 11   6  30  1   
 12   6  31  1   
 13   7  10  2   
 14   7  12  1   
 15   8  32  1   
 16   8  33  1   
 17   8  34  1   
 18  10  13  1   
 19  11  14  2   
 20  11  15  1   
 21  12  16  ar  
 22  12  35  1   
 23  13  16  ar  
 24  13  17  1   
 25  15  18  1   
 26  16  19  ar  
 27  17  20  1   
 28  17  36  1   
 29  17  37  1   
 30  18  21  1   
 31  18  38  1   
 32  18  39  1   
 33  19  22  1   
 34  19  23  1   
 35  20  23  1   
 36  20  24  1   
 37  20  40  1   
 38  21  41  1   
 39  21  42  1   
 40  21  43  1   
 41  22  25  1   
 42  22  26  1   
 43  22  44  1   
 44  23  45  1   
 45  23  46  1   
 46  24  47  1   
 47  24  48  1   
 48  24  49  1   
 49  25  27  1   
 50  25  50  1   
 51  25  51  1   
 52  26  28  1   
 53  26  52  1   
 54  26  53  1   
 55  27  29  1   
 56  27  54  1   
 57  27  55  1   
 58  28  29  1   
 59  28  56  1   
 60  28  57  1   
 61  29  58  1   
 62  29  59  1   
@<TRIPOS>SUBSTRUCTURE
  1 ****  10 GROUP 4 **** **** 0

# MOE 2024.06 (io_trps.svl 2023.06)
