@<TRIPOS>MOLECULE
5-Phenylaminomethyl-furan-2-carboxylic acid cyclohexylamide
44 46 1 0 0 
SMALL
USER_CHARGES


@<TRIPOS>ATOM
  1 O       -1.3790     0.1730     0.6010 O.2   1 <1>  -0.5700 
  2 C       -1.6760     1.3500     0.6630 C.2   1 <1>   0.7150 
  3 N       -0.6380     2.2200     0.5360 N.am  1 <1>  -0.7300 
  4 C       -3.0440     1.7830     0.8630 C.2   1 <1>   0.0550 
  5 C       -0.6920     3.6020     0.0380 C.3   1 <1>   0.2200 
  6 O       -4.0590     1.0630     0.3950 O.3   1 <1>  -0.2800 
  7 C       -3.5590     2.8770     1.4950 C.2   1 <1>  -0.1500 
  8 C        0.0710     3.6800    -1.2880 C.3   1 <1>  -0.1600 
  9 C       -0.0750     4.5340     1.0850 C.3   1 <1>  -0.1600 
 10 C       -5.1920     1.6560     0.7040 C.2   1 <1>  -0.0400 
 11 C       -4.9480     2.7930     1.3900 C.2   1 <1>  -0.1500 
 12 C        0.1220     5.1240    -1.8090 C.3   1 <1>  -0.1600 
 13 C       -0.0260     5.9810     0.5750 C.3   1 <1>  -0.1600 
 14 C       -6.5010     1.0110     0.2820 C.3   1 <1>   0.3890 
 15 C        0.7240     6.0710    -0.7620 C.3   1 <1>  -0.1600 
 16 N       -6.5610    -0.3440     0.8660 N.pl3 1 <1>  -0.8690 
 17 C       -7.0260    -1.3500     0.0360 C.ar  1 <1>   0.1000 
 18 C       -8.3580    -1.3960    -0.3540 C.ar  1 <1>  -0.1500 
 19 C       -6.1570    -2.3310    -0.4240 C.ar  1 <1>  -0.1500 
 20 C       -8.8130    -2.3960    -1.1940 C.ar  1 <1>  -0.1500 
 21 C       -6.6080    -3.3330    -1.2640 C.ar  1 <1>  -0.1500 
 22 C       -7.9370    -3.3670    -1.6520 C.ar  1 <1>  -0.1500 
 23 H        0.2700     1.7650     0.4430 H     1 <1>   0.3700 
 24 H       -1.7130     3.8930    -0.1390 H     1 <1>   0.0800 
 25 H       -3.0220     3.6620     1.9950 H     1 <1>   0.1500 
 26 H       -0.4140     3.0570    -2.0190 H     1 <1>   0.0800 
 27 H        1.0770     3.3250    -1.1490 H     1 <1>   0.0800 
 28 H        0.9260     4.2080     1.3100 H     1 <1>   0.0800 
 29 H       -0.6540     4.4950     1.9910 H     1 <1>   0.0800 
 30 H       -5.6520     3.5010     1.7910 H     1 <1>   0.1500 
 31 H       -0.8750     5.4510    -2.0540 H     1 <1>   0.0800 
 32 H        0.7100     5.1620    -2.7100 H     1 <1>   0.0800 
 33 H        0.4630     6.6050     1.3040 H     1 <1>   0.0800 
 34 H       -1.0290     6.3500     0.4450 H     1 <1>   0.0800 
 35 H       -6.5440     0.9540    -0.7920 H     1 <1>   0.0800 
 36 H       -7.3340     1.5910     0.6380 H     1 <1>   0.0800 
 37 H        0.6870     7.0830    -1.1280 H     1 <1>   0.0800 
 38 H        1.7590     5.8170    -0.6070 H     1 <1>   0.0800 
 39 H       -5.6200    -0.5440     1.2270 H     1 <1>   0.4000 
 40 H       -9.0340    -0.6470     0.0130 H     1 <1>   0.1500 
 41 H       -5.1250    -2.3040    -0.1250 H     1 <1>   0.1500 
 42 H       -9.8470    -2.4220    -1.4900 H     1 <1>   0.1500 
 43 H       -5.9240    -4.0860    -1.6150 H     1 <1>   0.1500 
 44 H       -8.2880    -4.1460    -2.3050 H     1 <1>   0.1500 
@<TRIPOS>BOND
  1   1   2  2   
  2   2   3  am  
  3   2   4  1   
  4   3   5  1   
  5   3  23  1   
  6   4   6  1   
  7   4   7  2   
  8   5   8  1   
  9   5   9  1   
 10   5  24  1   
 11   6  10  1   
 12   7  11  1   
 13   7  25  1   
 14   8  12  1   
 15   8  26  1   
 16   8  27  1   
 17   9  13  1   
 18   9  28  1   
 19   9  29  1   
 20  10  11  2   
 21  10  14  1   
 22  11  30  1   
 23  12  15  1   
 24  12  31  1   
 25  12  32  1   
 26  13  15  1   
 27  13  33  1   
 28  13  34  1   
 29  14  16  1   
 30  14  35  1   
 31  14  36  1   
 32  15  37  1   
 33  15  38  1   
 34  16  17  1   
 35  16  39  1   
 36  17  18  ar  
 37  17  19  ar  
 38  18  20  ar  
 39  18  40  1   
 40  19  21  ar  
 41  19  41  1   
 42  20  22  ar  
 43  20  42  1   
 44  21  22  ar  
 45  21  43  1   
 46  22  44  1   
@<TRIPOS>SUBSTRUCTURE
  1 ****   6 GROUP 4 **** **** 0

# MOE 2024.06 (io_trps.svl 2023.06)
