@<TRIPOS>MOLECULE
Morpholin-4-yl-[4-(2,4,6-trimethyl-benzenesulfonyl)-piperazin-1-yl]-methanone
53 55 1 0 0 
SMALL
USER_CHARGES


@<TRIPOS>ATOM
  1 S        0.0220    -0.1590    -1.8570 S.o2  1 <1>   1.4470 
  2 O       -0.4010    -1.4680    -2.3120 O.2   1 <1>  -0.6500 
  3 O        0.3130     0.8390    -2.8640 O.2   1 <1>  -0.6500 
  4 N       -1.3080     0.4200    -0.9780 N.am  1 <1>  -0.8490 
  5 C        1.3830    -0.2210    -0.6220 C.ar  1 <1>  -0.0090 
  6 C       -1.7660    -0.5530     0.0330 C.3   1 <1>   0.1960 
  7 C       -2.4130     0.7990    -1.8790 C.3   1 <1>   0.1960 
  8 C        2.1450    -1.3800    -0.4050 C.ar  1 <1>  -0.1440 
  9 C        1.7030     0.9090     0.1500 C.ar  1 <1>  -0.1440 
 10 C       -2.9500    -0.0140     0.8520 C.3   1 <1>   0.1400 
 11 C       -3.6230     1.3600    -1.1120 C.3   1 <1>   0.1400 
 12 C        3.1350    -1.4100     0.5660 C.ar  1 <1>  -0.1500 
 13 C        1.9580    -2.6640    -1.2070 C.3   1 <1>  -0.0960 
 14 C        2.6970     0.8560     1.1140 C.ar  1 <1>  -0.1500 
 15 C        0.9990     2.2540    -0.0160 C.3   1 <1>  -0.0960 
 16 N       -4.0550     0.4070    -0.0530 N.am  1 <1>  -0.6600 
 17 C        3.4130    -0.3000     1.3350 C.ar  1 <1>  -0.1440 
 18 C       -5.3770     0.1250     0.1670 C.2   1 <1>   0.6900 
 19 C        4.4990    -0.3460     2.3950 C.3   1 <1>  -0.0970 
 20 O       -6.2330     0.8920    -0.2360 O.2   1 <1>  -0.5700 
 21 N       -5.7430    -1.0260     0.8110 N.am  1 <1>  -0.6600 
 22 C       -5.2390    -2.3450     0.3330 C.3   1 <1>   0.1400 
 23 C       -7.0790    -1.1220     1.4690 C.3   1 <1>   0.1400 
 24 C       -6.3220    -3.0790    -0.4760 C.3   1 <1>   0.1200 
 25 C       -8.0570    -1.9230     0.5940 C.3   1 <1>   0.1200 
 26 O       -7.5090    -3.1680     0.2590 O.3   1 <1>  -0.5600 
 27 H       -0.9570    -0.7790     0.7070 H     1 <1>   0.0800 
 28 H       -2.0650    -1.4700    -0.4450 H     1 <1>   0.0800 
 29 H       -2.7280    -0.0580    -2.4520 H     1 <1>   0.0800 
 30 H       -2.0720     1.5500    -2.5710 H     1 <1>   0.0800 
 31 H       -2.6240     0.8360     1.4250 H     1 <1>   0.0800 
 32 H       -3.2890    -0.7650     1.5430 H     1 <1>   0.0800 
 33 H       -4.4300     1.5390    -1.8020 H     1 <1>   0.0800 
 34 H       -3.3580     2.2990    -0.6580 H     1 <1>   0.0800 
 35 H        3.7060    -2.3080     0.7280 H     1 <1>   0.1500 
 36 H        1.0200    -3.1260    -0.9600 H     1 <1>   0.0800 
 37 H        2.7400    -3.3730    -1.0020 H     1 <1>   0.0800 
 38 H        1.9850    -2.4550    -2.2620 H     1 <1>   0.0800 
 39 H        2.9240     1.7270     1.7030 H     1 <1>   0.1500 
 40 H        0.0230     2.2240     0.4320 H     1 <1>   0.0800 
 41 H        0.9040     2.5180    -1.0530 H     1 <1>   0.0800 
 42 H        1.5560     3.0410     0.4600 H     1 <1>   0.0800 
 43 H        4.5970    -1.3410     2.7910 H     1 <1>   0.0800 
 44 H        4.2620     0.3190     3.2060 H     1 <1>   0.0800 
 45 H        5.4380    -0.0490     1.9650 H     1 <1>   0.0800 
 46 H       -4.9560    -2.9470     1.1780 H     1 <1>   0.0800 
 47 H       -4.3740    -2.2100    -0.2910 H     1 <1>   0.0800 
 48 H       -7.4780    -0.1380     1.6470 H     1 <1>   0.0800 
 49 H       -6.9720    -1.6120     2.4210 H     1 <1>   0.0800 
 50 H       -6.0030    -4.0790    -0.7070 H     1 <1>   0.0800 
 51 H       -6.5250    -2.5580    -1.3960 H     1 <1>   0.0800 
 52 H       -8.2780    -1.3830    -0.3120 H     1 <1>   0.0800 
 53 H       -8.9750    -2.0980     1.1250 H     1 <1>   0.0800 
@<TRIPOS>BOND
  1   1   2  2   
  2   1   3  2   
  3   1   4  am  
  4   1   5  1   
  5   4   6  1   
  6   4   7  1   
  7   5   8  ar  
  8   5   9  ar  
  9   6  10  1   
 10   6  27  1   
 11   6  28  1   
 12   7  11  1   
 13   7  29  1   
 14   7  30  1   
 15   8  12  ar  
 16   8  13  1   
 17   9  14  ar  
 18   9  15  1   
 19  10  16  1   
 20  10  31  1   
 21  10  32  1   
 22  11  16  1   
 23  11  33  1   
 24  11  34  1   
 25  12  17  ar  
 26  12  35  1   
 27  13  36  1   
 28  13  37  1   
 29  13  38  1   
 30  14  17  ar  
 31  14  39  1   
 32  15  40  1   
 33  15  41  1   
 34  15  42  1   
 35  16  18  am  
 36  17  19  1   
 37  18  20  2   
 38  18  21  am  
 39  19  43  1   
 40  19  44  1   
 41  19  45  1   
 42  21  22  1   
 43  21  23  1   
 44  22  24  1   
 45  22  46  1   
 46  22  47  1   
 47  23  25  1   
 48  23  48  1   
 49  23  49  1   
 50  24  26  1   
 51  24  50  1   
 52  24  51  1   
 53  25  26  1   
 54  25  52  1   
 55  25  53  1   
@<TRIPOS>SUBSTRUCTURE
  1 ****   6 GROUP 4 **** **** 0

# MOE 2024.06 (io_trps.svl 2023.06)
