@<TRIPOS>MOLECULE
N-[2-(4-Acetyl-piperazin-1-yl)-phenyl]-5-chloro-2-methoxy-benzamide
49 51 1 0 0 
SMALL
USER_CHARGES


@<TRIPOS>ATOM
  1 CL      -3.5140    -2.8380     2.1900 Cl    1 <1>  -0.1770 
  2 C       -2.0550    -2.9550     1.2400 C.ar  1 <1>   0.1770 
  3 C       -1.1870    -4.0060     1.4560 C.ar  1 <1>  -0.1500 
  4 C       -1.7920    -1.9880     0.2880 C.ar  1 <1>  -0.1500 
  5 C       -0.0080    -4.1240     0.7180 C.ar  1 <1>   0.0860 
  6 C       -0.6390    -2.0920    -0.4670 C.ar  1 <1>  -0.1500 
  7 C        0.2350    -3.1530    -0.2700 C.ar  1 <1>   0.0830 
  8 C        0.9030    -5.2110     1.0020 C.2   1 <1>   0.5440 
  9 O        1.3200    -3.2030    -1.0700 O.3   1 <1>  -0.3630 
 10 O        0.4700    -6.3260     1.2190 O.2   1 <1>  -0.5700 
 11 N        2.2500    -4.9700     1.0360 N.am  1 <1>  -0.5470 
 12 C        1.3310    -4.1930    -2.0780 C.3   1 <1>   0.0400 
 13 C        3.4020    -5.7520     1.2090 C.ar  1 <1>   0.1170 
 14 C        4.6280    -5.0870     1.0580 C.ar  1 <1>   0.1000 
 15 C        3.3910    -7.1080     1.5080 C.ar  1 <1>  -0.1500 
 16 N        4.6440    -3.7130     0.7600 N.pl3 1 <1>  -0.8380 
 17 C        5.8100    -5.8010     1.2040 C.ar  1 <1>  -0.1500 
 18 C        4.5780    -7.8060     1.6530 C.ar  1 <1>  -0.1500 
 19 C        4.9430    -3.3530    -0.6570 C.3   1 <1>   0.2090 
 20 C        5.3410    -2.8190     1.7360 C.3   1 <1>   0.2090 
 21 C        5.7880    -7.1530     1.5000 C.ar  1 <1>  -0.1500 
 22 C        4.5940    -1.8800    -0.9370 C.3   1 <1>   0.1400 
 23 C        4.9920    -1.3450     1.4730 C.3   1 <1>   0.1400 
 24 N        5.2630    -0.9690     0.0470 N.am  1 <1>  -0.6600 
 25 C        6.0940     0.0730    -0.2650 C.2   1 <1>   0.5690 
 26 O        6.6610     0.7170     0.5840 O.2   1 <1>  -0.5700 
 27 C        6.3360     0.4600    -1.7050 C.3   1 <1>  -0.1790 
 28 H       -1.4210    -4.7410     2.2070 H     1 <1>   0.1500 
 29 H       -2.4820    -1.1760     0.1440 H     1 <1>   0.1500 
 30 H       -0.4130    -1.3550    -1.2170 H     1 <1>   0.1500 
 31 H        2.5310    -4.0090     0.8100 H     1 <1>   0.3700 
 32 H        2.1890    -4.0290    -2.7040 H     1 <1>   0.0800 
 33 H        0.4300    -4.1090    -2.6610 H     1 <1>   0.0800 
 34 H        1.3930    -5.1680    -1.6260 H     1 <1>   0.0800 
 35 H        2.4590    -7.6270     1.6300 H     1 <1>   0.1500 
 36 H        6.7500    -5.2970     1.0830 H     1 <1>   0.1500 
 37 H        4.5560    -8.8570     1.8850 H     1 <1>   0.1500 
 38 H        4.3730    -3.9890    -1.3120 H     1 <1>   0.0800 
 39 H        5.9880    -3.5180    -0.8570 H     1 <1>   0.0800 
 40 H        6.4060    -2.9480     1.6540 H     1 <1>   0.0800 
 41 H        5.0460    -3.0850     2.7360 H     1 <1>   0.0800 
 42 H        6.7110    -7.6950     1.6120 H     1 <1>   0.1500 
 43 H        3.5280    -1.7540    -0.8580 H     1 <1>   0.0800 
 44 H        4.8780    -1.6410    -1.9440 H     1 <1>   0.0800 
 45 H        5.5590    -0.7250     2.1450 H     1 <1>   0.0800 
 46 H        3.9490    -1.1890     1.6850 H     1 <1>   0.0800 
 47 H        6.8460    -0.3350    -2.2140 H     1 <1>   0.0800 
 48 H        6.9490     1.3420    -1.7430 H     1 <1>   0.0800 
 49 H        5.4020     0.6700    -2.1900 H     1 <1>   0.0800 
@<TRIPOS>BOND
  1   1   2  1   
  2   2   3  ar  
  3   2   4  ar  
  4   3   5  ar  
  5   3  28  1   
  6   4   6  ar  
  7   4  29  1   
  8   5   7  ar  
  9   5   8  1   
 10   6   7  ar  
 11   6  30  1   
 12   7   9  1   
 13   8  10  2   
 14   8  11  am  
 15   9  12  1   
 16  11  13  1   
 17  11  31  1   
 18  12  32  1   
 19  12  33  1   
 20  12  34  1   
 21  13  14  ar  
 22  13  15  ar  
 23  14  16  1   
 24  14  17  ar  
 25  15  18  ar  
 26  15  35  1   
 27  16  19  1   
 28  16  20  1   
 29  17  21  ar  
 30  17  36  1   
 31  18  21  ar  
 32  18  37  1   
 33  19  22  1   
 34  19  38  1   
 35  19  39  1   
 36  20  23  1   
 37  20  40  1   
 38  20  41  1   
 39  21  42  1   
 40  22  24  1   
 41  22  43  1   
 42  22  44  1   
 43  23  24  1   
 44  23  45  1   
 45  23  46  1   
 46  24  25  am  
 47  25  26  2   
 48  25  27  1   
 49  27  47  1   
 50  27  48  1   
 51  27  49  1   
@<TRIPOS>SUBSTRUCTURE
  1 ****  11 GROUP 4 **** **** 0

# MOE 2024.06 (io_trps.svl 2023.06)
