@<TRIPOS>MOLECULE
6-Methyl-10-oxo-2-[(tetrahydro-furan-2-ylmethyl)-amino]-10H-1,9,10a-triaza-anthr
59 63 1 0 0 
SMALL
USER_CHARGES


@<TRIPOS>ATOM
  1 O       -0.9780    -1.4450    -2.3780 O.2   1 <1>  -0.5700 
  2 C       -0.5560    -2.3110    -1.6460 C.2   1 <1>   0.8650 
  3 N       -1.4400    -3.3190    -1.2190 N.pl3 1 <1>  -0.5760 
  4 C        0.8070    -2.3050    -1.2200 C.ar  1 <1>   0.0860 
  5 C       -1.0040    -4.2880    -0.3800 C.cat 1 <1>   0.7390 
  6 C       -2.7530    -3.3360    -1.6390 C.2   1 <1>   0.1910 
  7 C        1.1870    -3.3300    -0.3620 C.ar  1 <1>   0.6590 
  8 C        1.7760    -1.3770    -1.5740 C.ar  1 <1>  -0.1500 
  9 N        0.2750    -4.2600     0.0200 N.pl3 1 <1>  -0.6530 
 10 C       -1.8820    -5.2910     0.0510 C.2   1 <1>  -0.1800 
 11 C       -3.6280    -4.3070    -1.2310 C.2   1 <1>  -0.1380 
 12 N        2.3840    -3.5040     0.1390 N.ar  1 <1>  -0.6200 
 13 C        3.0550    -1.5180    -1.0650 C.ar  1 <1>   0.0860 
 14 C       -3.1860    -5.3120    -0.3640 C.2   1 <1>  -0.1500 
 15 C       -5.0770    -4.3280    -1.6930 C.3   1 <1>  -0.1020 
 16 C        3.3080    -2.6290    -0.2260 C.ar  1 <1>   0.4100 
 17 C        4.0600    -0.5490    -1.4100 C.2   1 <1>   0.5440 
 18 N        4.5220    -2.9220     0.3070 N.pl3 1 <1>  -0.8690 
 19 O        4.4410    -0.4620    -2.5580 O.2   1 <1>  -0.5700 
 20 N        4.5970     0.3310    -0.5250 N.am  1 <1>  -0.7300 
 21 C        5.8500    -2.8220    -0.3590 C.3   1 <1>   0.2090 
 22 C        4.3630     0.4470     0.9250 C.3   1 <1>   0.2200 
 23 C        6.5980    -4.1630    -0.2530 C.3   1 <1>   0.2000 
 24 C        3.5960     1.7340     1.1970 C.3   1 <1>  -0.1600 
 25 C        5.6990     0.6810     1.6200 C.3   1 <1>  -0.1600 
 26 O        6.4730    -4.6980     1.0340 O.3   1 <1>  -0.5600 
 27 C        8.0960    -4.0680    -0.5000 C.3   1 <1>  -0.1600 
 28 C        4.6440     2.8520     1.1780 C.3   1 <1>  -0.1600 
 29 C        5.9900     2.1790     1.4750 C.3   1 <1>  -0.1600 
 30 C        7.6000    -5.4380     1.3910 C.3   1 <1>   0.1200 
 31 C        8.6210    -5.2630     0.2710 C.3   1 <1>  -0.1600 
 32 H       -3.0910    -2.5580    -2.3100 H     1 <1>   0.1500 
 33 H        1.5460    -0.5560    -2.2360 H     1 <1>   0.1500 
 34 H        0.6540    -4.9700     0.6490 H     1 <1>   0.4500 
 35 H       -1.5190    -6.0530     0.7170 H     1 <1>   0.1500 
 36 H       -3.8710    -6.0800    -0.0370 H     1 <1>   0.1500 
 37 H       -5.2850    -5.2450    -2.2170 H     1 <1>   0.0800 
 38 H       -5.2890    -3.5060    -2.3530 H     1 <1>   0.0800 
 39 H       -5.7360    -4.2610    -0.8460 H     1 <1>   0.0800 
 40 H        4.5510    -3.6920     0.9940 H     1 <1>   0.4000 
 41 H        5.2440     1.0220    -0.9100 H     1 <1>   0.3700 
 42 H        6.4250    -2.0520     0.1230 H     1 <1>   0.0800 
 43 H        5.7430    -2.5640    -1.3980 H     1 <1>   0.0800 
 44 H        3.8570    -0.4220     1.3110 H     1 <1>   0.0800 
 45 H        6.1630    -4.8760    -0.9330 H     1 <1>   0.0800 
 46 H        3.1700     1.6760     2.1840 H     1 <1>   0.0800 
 47 H        2.8040     1.8980     0.4870 H     1 <1>   0.0800 
 48 H        6.4840     0.0660     1.2190 H     1 <1>   0.0800 
 49 H        5.5830     0.4490     2.6640 H     1 <1>   0.0800 
 50 H        8.4840    -3.1570    -0.0780 H     1 <1>   0.0800 
 51 H        8.3380    -4.1100    -1.5470 H     1 <1>   0.0800 
 52 H        4.4120     3.6120     1.9040 H     1 <1>   0.0800 
 53 H        4.6750     3.3040     0.2010 H     1 <1>   0.0800 
 54 H        6.6690     2.3460     0.6560 H     1 <1>   0.0800 
 55 H        6.4330     2.5700     2.3760 H     1 <1>   0.0800 
 56 H        7.3150    -6.4690     1.5180 H     1 <1>   0.0800 
 57 H        7.9690    -5.0430     2.3220 H     1 <1>   0.0800 
 58 H        9.6140    -5.1050     0.6530 H     1 <1>   0.0800 
 59 H        8.6190    -6.1420    -0.3500 H     1 <1>   0.0800 
@<TRIPOS>BOND
  1   1   2  2   
  2   2   3  1   
  3   2   4  1   
  4   3   5  ar  
  5   3   6  1   
  6   4   7  ar  
  7   4   8  ar  
  8   5   9  ar  
  9   5  10  1   
 10   6  11  2   
 11   6  32  1   
 12   7   9  1   
 13   7  12  ar  
 14   8  13  ar  
 15   8  33  1   
 16   9  34  1   
 17  10  14  2   
 18  10  35  1   
 19  11  14  1   
 20  11  15  1   
 21  12  16  ar  
 22  13  16  ar  
 23  13  17  1   
 24  14  36  1   
 25  15  37  1   
 26  15  38  1   
 27  15  39  1   
 28  16  18  1   
 29  17  19  2   
 30  17  20  am  
 31  18  21  1   
 32  18  40  1   
 33  20  22  1   
 34  20  41  1   
 35  21  23  1   
 36  21  42  1   
 37  21  43  1   
 38  22  24  1   
 39  22  25  1   
 40  22  44  1   
 41  23  26  1   
 42  23  27  1   
 43  23  45  1   
 44  24  28  1   
 45  24  46  1   
 46  24  47  1   
 47  25  29  1   
 48  25  48  1   
 49  25  49  1   
 50  26  30  1   
 51  27  31  1   
 52  27  50  1   
 53  27  51  1   
 54  28  29  1   
 55  28  52  1   
 56  28  53  1   
 57  29  54  1   
 58  29  55  1   
 59  30  31  1   
 60  30  56  1   
 61  30  57  1   
 62  31  58  1   
 63  31  59  1   
@<TRIPOS>SUBSTRUCTURE
  1 ****  16 GROUP 4 **** **** 0

# MOE 2024.06 (io_trps.svl 2023.06)
