@<TRIPOS>MOLECULE
[8-(4-Fluoro-phenyl)-1-methyl-2,4-dioxo-1,2,4,6,7,8-hexahydro-imidazo[2,1-f]puri
44 47 1 0 0 
SMALL
USER_CHARGES


@<TRIPOS>ATOM
  1 F       -0.9360     0.9650    -1.2830 F     1 <1>  -0.1980 
  2 C       -2.0330     1.6010    -0.9710 C.ar  1 <1>   0.1820 
  3 C       -2.6210     1.3560     0.2550 C.ar  1 <1>  -0.1590 
  4 C       -2.5660     2.4980    -1.8780 C.ar  1 <1>  -0.1590 
  5 C       -3.7860     2.0320     0.5790 C.ar  1 <1>  -0.1590 
  6 C       -3.7300     3.1670    -1.5410 C.ar  1 <1>  -0.1590 
  7 C       -4.3510     2.9390    -0.3150 C.ar  1 <1>   0.3040 
  8 N       -5.5340     3.6100     0.0110 N.pl3 1 <1>  -0.5810 
  9 C       -6.7170     3.0940     0.3510 C.cat 1 <1>   1.0680 
 10 C       -5.6420     5.1030     0.0720 C.3   1 <1>   0.1590 
 11 N       -7.2250     1.8690     0.4320 N.pl3 1 <1>  -0.7050 
 12 N       -7.6150     3.9940     0.6630 N.pl3 1 <1>  -0.7680 
 13 C       -7.0980     5.3660     0.5320 C.3   1 <1>   0.3470 
 14 C       -8.5370     2.0120     0.8040 C.2   1 <1>   0.4190 
 15 C       -8.8110     3.3310     0.9510 C.2   1 <1>   0.2690 
 16 N       -9.4790     1.0200     1.0030 N.am  1 <1>  -0.4430 
 17 C      -10.1320     3.7360     1.3170 C.2   1 <1>   0.6990 
 18 C      -10.7810     1.4070     1.2960 C.2   1 <1>   0.6850 
 19 C       -9.1350    -0.4210     0.8260 C.3   1 <1>   0.0510 
 20 O      -10.4080     4.9080     1.5090 O.2   1 <1>  -0.5750 
 21 N      -11.0960     2.7500     1.4490 N.am  1 <1>  -0.4270 
 22 O      -11.6510     0.5680     1.4140 O.2   1 <1>  -0.5750 
 23 C      -12.5340     3.1630     1.3180 C.3   1 <1>   0.1930 
 24 C      -12.9140     3.3960    -0.1410 C.2   1 <1>   0.6540 
 25 O      -12.0930     3.3470    -1.0280 O.2   1 <1>  -0.5750 
 26 O      -14.1930     3.6620    -0.3720 O.3   1 <1>  -0.4370 
 27 C      -14.6830     3.8990    -1.6760 C.3   1 <1>   0.0300 
 28 H       -2.1670     0.6540     0.9340 H     1 <1>   0.1410 
 29 H       -2.0750     2.6620    -2.8210 H     1 <1>   0.1410 
 30 H       -4.2420     1.8580     1.5370 H     1 <1>   0.1410 
 31 H       -4.1560     3.8650    -2.2400 H     1 <1>   0.1410 
 32 H       -5.4640     5.5390    -0.8960 H     1 <1>   0.0710 
 33 H       -4.9380     5.5040     0.7810 H     1 <1>   0.0710 
 34 H       -6.7320     1.0110     0.2000 H     1 <1>   0.4440 
 35 H       -7.6550     5.9180    -0.2080 H     1 <1>   0.0710 
 36 H       -7.1300     5.8820     1.4770 H     1 <1>   0.0710 
 37 H       -9.8120    -1.0410     1.3900 H     1 <1>   0.0710 
 38 H       -8.1360    -0.6160     1.1740 H     1 <1>   0.0710 
 39 H       -9.2130    -0.6860    -0.2140 H     1 <1>   0.0710 
 40 H      -12.7080     4.0690     1.8700 H     1 <1>   0.0710 
 41 H      -13.1790     2.4070     1.7280 H     1 <1>   0.0710 
 42 H      -15.7380     4.0950    -1.6130 H     1 <1>   0.0710 
 43 H      -14.5030     3.0260    -2.2790 H     1 <1>   0.0710 
 44 H      -14.1710     4.7500    -2.0910 H     1 <1>   0.0710 
@<TRIPOS>BOND
  1   1   2  1   
  2   2   3  ar  
  3   2   4  ar  
  4   3   5  ar  
  5   3  28  1   
  6   4   6  ar  
  7   4  29  1   
  8   5   7  ar  
  9   5  30  1   
 10   6   7  ar  
 11   6  31  1   
 12   7   8  1   
 13   8   9  ar  
 14   8  10  1   
 15   9  11  ar  
 16   9  12  ar  
 17  10  13  1   
 18  10  32  1   
 19  10  33  1   
 20  11  14  1   
 21  11  34  1   
 22  12  13  1   
 23  12  15  1   
 24  13  35  1   
 25  13  36  1   
 26  14  15  2   
 27  14  16  1   
 28  15  17  1   
 29  16  18  am  
 30  16  19  1   
 31  17  20  2   
 32  17  21  am  
 33  18  21  am  
 34  18  22  2   
 35  19  37  1   
 36  19  38  1   
 37  19  39  1   
 38  21  23  1   
 39  23  24  1   
 40  23  40  1   
 41  23  41  1   
 42  24  25  2   
 43  24  26  1   
 44  26  27  1   
 45  27  42  1   
 46  27  43  1   
 47  27  44  1   
@<TRIPOS>SUBSTRUCTURE
  1 ****  14 GROUP 4 **** **** 0

# MOE 2024.06 (io_trps.svl 2023.06)
