@<TRIPOS>MOLECULE
1-Allyl-4-hydroxy-6,7-dimethoxy-2-oxo-1,2-dihydro-quinoline-3-carboxylic acid (2
57 59 1 0 0 
SMALL
USER_CHARGES


@<TRIPOS>ATOM
  1 O        0.0630    -0.3400     1.5950 O.2   1 <1>  -0.5700 
  2 C       -0.7390     0.5260     1.2370 C.2   1 <1>   0.5350 
  3 N       -2.0700     0.1750     1.0560 N.am  1 <1>  -0.4770 
  4 C       -0.3150     1.8390     0.9870 C.3   1 <1>  -0.7150 
  5 C       -2.9850     1.0650     0.4550 C.ar  1 <1>   0.1170 
  6 C       -2.5370    -1.1110     1.6540 C.3   1 <1>   0.2780 
  7 C       -1.1560     2.6860     0.2560 C.2   1 <1>   0.3890 
  8 C        0.9170     2.2870     1.4600 C.2   1 <1>   0.5350 
  9 C       -2.5380     2.3340     0.0530 C.ar  1 <1>   0.0860 
 10 C       -4.3230     0.7250     0.2310 C.ar  1 <1>  -0.1500 
 11 C       -2.8010    -2.1920     0.6070 C.2   1 <1>  -0.2880 
 12 O       -0.7100     3.7150    -0.2710 O.2   1 <1>  -0.5700 
 13 O        1.0690     3.3030     2.1270 O.2   1 <1>  -0.5700 
 14 N        2.0140     1.5870     1.0880 N.am  1 <1>  -0.7300 
 15 C       -3.4470     3.2240    -0.5290 C.ar  1 <1>  -0.1500 
 16 C       -5.2080     1.6050    -0.3570 C.ar  1 <1>   0.0830 
 17 C       -2.5980    -2.1140    -0.7140 C.2   1 <1>  -0.3000 
 18 C        3.4110     2.0330     1.2740 C.3   1 <1>   0.1400 
 19 C       -4.7670     2.8820    -0.7200 C.ar  1 <1>   0.0830 
 20 O       -6.4790     1.1830    -0.5570 O.3   1 <1>  -0.3630 
 21 C        4.0360     2.4100    -0.0850 C.3   1 <1>   0.3430 
 22 O       -5.6000     3.8120    -1.2550 O.3   1 <1>  -0.3630 
 23 C       -6.9110     1.0790    -1.8960 C.3   1 <1>   0.0400 
 24 N        3.6400     3.7430    -0.6730 N.4   1 <1>  -0.9590 
 25 C       -6.5270     4.3760    -0.3550 C.3   1 <1>   0.0400 
 26 C        2.1530     4.0170    -0.6550 C.3   1 <1>   0.3430 
 27 C        4.1750     3.9160    -2.0590 C.3   1 <1>   0.3430 
 28 C        1.7570     5.2410    -1.5040 C.3   1 <1>   0.1200 
 29 C        3.7950     5.2830    -2.6750 C.3   1 <1>   0.1200 
 30 O        2.8900     5.9880    -1.8740 O.3   1 <1>  -0.5600 
 31 H       -3.4360    -0.9220     2.2120 H     1 <1>   0.0800 
 32 H       -1.8150    -1.4800     2.3610 H     1 <1>   0.0800 
 33 H       -4.6980    -0.2420     0.5000 H     1 <1>   0.1500 
 34 H       -3.1860    -3.0860     1.0620 H     1 <1>   0.1500 
 35 H        1.7910     0.5820     1.0580 H     1 <1>   0.3700 
 36 H       -3.1070     4.1990    -0.8250 H     1 <1>   0.1500 
 37 H       -2.8010    -2.9120    -1.4050 H     1 <1>   0.1500 
 38 H       -2.2050    -1.2430    -1.2110 H     1 <1>   0.1500 
 39 H        3.9630     1.2200     1.7090 H     1 <1>   0.0800 
 40 H        3.4580     2.8670     1.9530 H     1 <1>   0.0800 
 41 H        3.7830     1.6270    -0.7800 H     1 <1>   0.0800 
 42 H        5.1060     2.4000     0.0350 H     1 <1>   0.0800 
 43 H       -6.1920     0.5000    -2.4490 H     1 <1>   0.0800 
 44 H       -7.0050     2.0620    -2.3190 H     1 <1>   0.0800 
 45 H       -7.8660     0.5850    -1.9030 H     1 <1>   0.0800 
 46 H        4.0200     4.5060    -0.0980 H     1 <1>   0.4500 
 47 H       -5.9890     4.8250     0.4610 H     1 <1>   0.0800 
 48 H       -7.1830     3.6050     0.0080 H     1 <1>   0.0800 
 49 H       -7.0940     5.1240    -0.8800 H     1 <1>   0.0800 
 50 H        1.8440     4.2250     0.3520 H     1 <1>   0.0800 
 51 H        1.5930     3.1560    -0.9810 H     1 <1>   0.0800 
 52 H        3.7780     3.1380    -2.6900 H     1 <1>   0.0800 
 53 H        5.2470     3.8170    -2.0590 H     1 <1>   0.0800 
 54 H        1.0990     5.8750    -0.9350 H     1 <1>   0.0800 
 55 H        1.2340     4.9290    -2.3910 H     1 <1>   0.0800 
 56 H        3.3550     5.1470    -3.6480 H     1 <1>   0.0800 
 57 H        4.6720     5.8960    -2.7860 H     1 <1>   0.0800 
@<TRIPOS>BOND
  1   1   2  2   
  2   2   3  am  
  3   2   4  1   
  4   3   5  1   
  5   3   6  1   
  6   4   7  1   
  7   4   8  1   
  8   5   9  ar  
  9   5  10  ar  
 10   6  11  1   
 11   6  31  1   
 12   6  32  1   
 13   7   9  1   
 14   7  12  2   
 15   8  13  2   
 16   8  14  am  
 17   9  15  ar  
 18  10  16  ar  
 19  10  33  1   
 20  11  17  2   
 21  11  34  1   
 22  14  18  1   
 23  14  35  1   
 24  15  19  ar  
 25  15  36  1   
 26  16  19  ar  
 27  16  20  1   
 28  17  37  1   
 29  17  38  1   
 30  18  21  1   
 31  18  39  1   
 32  18  40  1   
 33  19  22  1   
 34  20  23  1   
 35  21  24  1   
 36  21  41  1   
 37  21  42  1   
 38  22  25  1   
 39  23  43  1   
 40  23  44  1   
 41  23  45  1   
 42  24  26  1   
 43  24  27  1   
 44  24  46  1   
 45  25  47  1   
 46  25  48  1   
 47  25  49  1   
 48  26  28  1   
 49  26  50  1   
 50  26  51  1   
 51  27  29  1   
 52  27  52  1   
 53  27  53  1   
 54  28  30  1   
 55  28  54  1   
 56  28  55  1   
 57  29  30  1   
 58  29  56  1   
 59  29  57  1   
@<TRIPOS>SUBSTRUCTURE
  1 ****   7 GROUP 4 **** **** 0

# MOE 2024.06 (io_trps.svl 2023.06)
