@<TRIPOS>MOLECULE
(4-Benzo[1,3]dioxol-5-ylmethyl-piperazin-1-yl)-(2-ethylsulfanyl-phenyl)-methanon
52 55 1 0 0 
SMALL
USER_CHARGES


@<TRIPOS>ATOM
  1 S        2.7290    -0.1500     1.0720 S.3   1 <1>  -0.3320 
  2 C        1.9180    -1.4670     0.1500 C.ar  1 <1>   0.1020 
  3 C        2.2770     1.3880     0.1500 C.3   1 <1>   0.0700 
  4 C        2.2320    -1.7190    -1.1880 C.ar  1 <1>   0.0860 
  5 C        0.9780    -2.2170     0.8320 C.ar  1 <1>  -0.1500 
  6 C        2.4740     2.5700     1.0960 C.3   1 <1>  -0.2400 
  7 C        3.2710    -0.9930    -1.8800 C.2   1 <1>   0.5440 
  8 C        1.5240    -2.7330    -1.8310 C.ar  1 <1>  -0.1500 
  9 C        0.3030    -3.2290     0.1750 C.ar  1 <1>  -0.1500 
 10 O        2.9700    -0.1180    -2.6660 O.2   1 <1>  -0.5700 
 11 N        4.6110    -1.2440    -1.6500 N.am  1 <1>  -0.6600 
 12 C        0.5730    -3.4820    -1.1600 C.ar  1 <1>  -0.1500 
 13 C        5.6620    -0.2820    -2.0900 C.3   1 <1>   0.1400 
 14 C        5.1160    -2.2920    -0.7140 C.3   1 <1>   0.1400 
 15 C        6.2730     0.4010    -0.8550 C.3   1 <1>   0.3430 
 16 C        5.7910    -1.6460     0.5150 C.3   1 <1>   0.3430 
 17 N        6.8100    -0.5990     0.1450 N.4   1 <1>  -0.9590 
 18 C        7.3250     0.0870     1.3610 C.3   1 <1>   0.4860 
 19 C        8.4450     1.0240     0.9530 C.ar  1 <1>  -0.1430 
 20 C        9.6740     0.5050     0.5530 C.ar  1 <1>  -0.1500 
 21 C        8.2400     2.4060     0.9670 C.ar  1 <1>  -0.1500 
 22 C       10.6560     1.3910     0.1610 C.ar  1 <1>   0.0830 
 23 C        9.2460     3.2790     0.5720 C.ar  1 <1>  -0.1500 
 24 O       11.8920     1.1150    -0.2650 O.3   1 <1>  -0.3620 
 25 C       10.4500     2.7380     0.1690 C.ar  1 <1>   0.0830 
 26 C       12.5230     2.3690    -0.5280 C.3   1 <1>   0.4000 
 27 O       11.5480     3.3740    -0.2510 O.3   1 <1>  -0.3620 
 28 H        1.2490     1.2920    -0.1570 H     1 <1>   0.0800 
 29 H        2.9140     1.4650    -0.7120 H     1 <1>   0.0800 
 30 H        0.7670    -2.0050     1.8660 H     1 <1>   0.1500 
 31 H        1.8430     2.4610     1.9600 H     1 <1>   0.0800 
 32 H        2.2100     3.4850     0.5940 H     1 <1>   0.0800 
 33 H        3.4990     2.6330     1.4130 H     1 <1>   0.0800 
 34 H        1.7270    -2.9340    -2.8690 H     1 <1>   0.1500 
 35 H       -0.4360    -3.8150     0.6960 H     1 <1>   0.1500 
 36 H        0.0390    -4.2630    -1.6750 H     1 <1>   0.1500 
 37 H        5.2500     0.4710    -2.7410 H     1 <1>   0.0800 
 38 H        6.4230    -0.8050    -2.6420 H     1 <1>   0.0800 
 39 H        5.8270    -2.9120    -1.2320 H     1 <1>   0.0800 
 40 H        4.3160    -2.9330    -0.3850 H     1 <1>   0.0800 
 41 H        5.5070     1.0020    -0.3910 H     1 <1>   0.0800 
 42 H        7.0630     1.0620    -1.1750 H     1 <1>   0.0800 
 43 H        6.2560    -2.4190     1.1040 H     1 <1>   0.0800 
 44 H        5.0240    -1.1970     1.1220 H     1 <1>   0.0800 
 45 H        7.6130    -1.0600    -0.3010 H     1 <1>   0.4500 
 46 H        7.7050    -0.6360     2.0650 H     1 <1>   0.0800 
 47 H        6.5340     0.6440     1.8370 H     1 <1>   0.0800 
 48 H        9.8900    -0.5490     0.5390 H     1 <1>   0.1500 
 49 H        7.2990     2.8210     1.2870 H     1 <1>   0.1500 
 50 H        9.1100     4.3460     0.5770 H     1 <1>   0.1500 
 51 H       12.8110     2.4210    -1.5630 H     1 <1>   0.0800 
 52 H       13.3660     2.4950     0.1270 H     1 <1>   0.0800 
@<TRIPOS>BOND
  1   1   2  1   
  2   1   3  1   
  3   2   4  ar  
  4   2   5  ar  
  5   3   6  1   
  6   3  28  1   
  7   3  29  1   
  8   4   7  1   
  9   4   8  ar  
 10   5   9  ar  
 11   5  30  1   
 12   6  31  1   
 13   6  32  1   
 14   6  33  1   
 15   7  10  2   
 16   7  11  am  
 17   8  12  ar  
 18   8  34  1   
 19   9  12  ar  
 20   9  35  1   
 21  11  13  1   
 22  11  14  1   
 23  12  36  1   
 24  13  15  1   
 25  13  37  1   
 26  13  38  1   
 27  14  16  1   
 28  14  39  1   
 29  14  40  1   
 30  15  17  1   
 31  15  41  1   
 32  15  42  1   
 33  16  17  1   
 34  16  43  1   
 35  16  44  1   
 36  17  18  1   
 37  17  45  1   
 38  18  19  1   
 39  18  46  1   
 40  18  47  1   
 41  19  20  ar  
 42  19  21  ar  
 43  20  22  ar  
 44  20  48  1   
 45  21  23  ar  
 46  21  49  1   
 47  22  24  1   
 48  22  25  ar  
 49  23  25  ar  
 50  23  50  1   
 51  24  26  1   
 52  25  27  1   
 53  26  27  1   
 54  26  51  1   
 55  26  52  1   
@<TRIPOS>SUBSTRUCTURE
  1 ****  15 GROUP 4 **** **** 0

# MOE 2024.06 (io_trps.svl 2023.06)
