@<TRIPOS>MOLECULE
1-(4-Ethoxy-3-methyl-benzenesulfonyl)-piperidine-4-carboxylic acid (pyridin-3-yl
56 58 1 0 0 
SMALL
USER_CHARGES


@<TRIPOS>ATOM
  1 S        0.0290     0.1690    -2.6530 S.o2  1 <1>   1.4470 
  2 O        0.7730    -0.7810    -3.4540 O.2   1 <1>  -0.6500 
  3 O       -0.6990     1.2290    -3.3160 O.2   1 <1>  -0.6500 
  4 N        1.1540     0.9010    -1.6150 N.am  1 <1>  -0.8490 
  5 C       -1.0840    -0.7060    -1.5180 C.ar  1 <1>  -0.0090 
  6 C        1.9070     1.9530    -2.3010 C.3   1 <1>   0.1960 
  7 C        2.0450    -0.0810    -0.9900 C.3   1 <1>   0.1960 
  8 C       -1.5550    -0.0930    -0.3630 C.ar  1 <1>  -0.1500 
  9 C       -1.4980    -2.0070    -1.7750 C.ar  1 <1>  -0.1500 
 10 C        2.8020     2.7000    -1.3080 C.3   1 <1>  -0.1600 
 11 C        2.9330     0.5990     0.0540 C.3   1 <1>  -0.1600 
 12 C       -2.4000    -0.7470     0.5180 C.ar  1 <1>  -0.1430 
 13 C       -2.3440    -2.6770    -0.9090 C.ar  1 <1>  -0.1500 
 14 C        3.7510     1.7400    -0.5710 C.3   1 <1>  -0.0190 
 15 C       -2.8010    -2.0510     0.2480 C.ar  1 <1>   0.0820 
 16 C       -2.8830    -0.0320     1.7720 C.3   1 <1>  -0.0970 
 17 C        4.5910     2.4710     0.4740 C.2   1 <1>   0.5690 
 18 O       -3.6300    -2.6550     1.1380 O.3   1 <1>  -0.3630 
 19 O        4.0530     2.9970     1.4170 O.2   1 <1>  -0.5700 
 20 N        5.9370     2.5090     0.3200 N.am  1 <1>  -0.7300 
 21 C       -4.1160    -3.9610     0.9360 C.3   1 <1>   0.1200 
 22 C        6.8680     3.1190     1.2850 C.3   1 <1>   0.2840 
 23 C       -5.0250    -4.3130     2.1100 C.3   1 <1>  -0.2400 
 24 C        8.1410     2.3000     1.2870 C.ar  1 <1>  -0.1430 
 25 C        8.2120     1.1310     2.0300 C.ar  1 <1>   0.1600 
 26 C        9.2430     2.6900     0.5510 C.ar  1 <1>  -0.1500 
 27 N        9.2700     0.3380     2.0950 N.ar  1 <1>  -0.6200 
 28 C       10.3540     1.8760     0.6090 C.ar  1 <1>  -0.1500 
 29 C       10.3160     0.7300     1.3850 C.ar  1 <1>   0.1600 
 30 H        1.2240     2.6610    -2.7440 H     1 <1>   0.0800 
 31 H        2.5010     1.5220    -3.0910 H     1 <1>   0.0800 
 32 H        2.6590    -0.5540    -1.7410 H     1 <1>   0.0800 
 33 H        1.4620    -0.8460    -0.5050 H     1 <1>   0.0800 
 34 H       -1.2460     0.9190    -0.1570 H     1 <1>   0.1500 
 35 H       -1.1520    -2.5030    -2.6670 H     1 <1>   0.1500 
 36 H        2.1750     3.2100    -0.5960 H     1 <1>   0.0800 
 37 H        3.3730     3.4450    -1.8320 H     1 <1>   0.0800 
 38 H        3.5960    -0.1280     0.4880 H     1 <1>   0.0800 
 39 H        2.3080     0.9840     0.8420 H     1 <1>   0.0800 
 40 H       -2.6340    -3.6810    -1.1510 H     1 <1>   0.1500 
 41 H        4.4170     1.3100    -1.2980 H     1 <1>   0.0800 
 42 H       -2.4600     0.9530     1.8480 H     1 <1>   0.0800 
 43 H       -2.6000    -0.5950     2.6440 H     1 <1>   0.0800 
 44 H       -3.9550     0.0530     1.7510 H     1 <1>   0.0800 
 45 H        6.3890     2.0360    -0.4630 H     1 <1>   0.3700 
 46 H       -3.2770    -4.6340     0.8900 H     1 <1>   0.0800 
 47 H       -4.6660    -3.9810     0.0110 H     1 <1>   0.0800 
 48 H        6.4290     3.1320     2.2690 H     1 <1>   0.0800 
 49 H        7.0720     4.1340     0.9920 H     1 <1>   0.0800 
 50 H       -4.4710    -4.2740     3.0310 H     1 <1>   0.0800 
 51 H       -5.4140    -5.3070     1.9860 H     1 <1>   0.0800 
 52 H       -5.8500    -3.6250     2.1580 H     1 <1>   0.0800 
 53 H        7.3500     0.8290     2.6000 H     1 <1>   0.1500 
 54 H        9.2420     3.5870    -0.0440 H     1 <1>   0.1500 
 55 H       11.2440     2.1250     0.0610 H     1 <1>   0.1500 
 56 H       11.1900     0.1020     1.4230 H     1 <1>   0.1500 
@<TRIPOS>BOND
  1   1   2  2   
  2   1   3  2   
  3   1   4  am  
  4   1   5  1   
  5   4   6  1   
  6   4   7  1   
  7   5   8  ar  
  8   5   9  ar  
  9   6  10  1   
 10   6  30  1   
 11   6  31  1   
 12   7  11  1   
 13   7  32  1   
 14   7  33  1   
 15   8  12  ar  
 16   8  34  1   
 17   9  13  ar  
 18   9  35  1   
 19  10  14  1   
 20  10  36  1   
 21  10  37  1   
 22  11  14  1   
 23  11  38  1   
 24  11  39  1   
 25  12  15  ar  
 26  12  16  1   
 27  13  15  ar  
 28  13  40  1   
 29  14  17  1   
 30  14  41  1   
 31  15  18  1   
 32  16  42  1   
 33  16  43  1   
 34  16  44  1   
 35  17  19  2   
 36  17  20  am  
 37  18  21  1   
 38  20  22  1   
 39  20  45  1   
 40  21  23  1   
 41  21  46  1   
 42  21  47  1   
 43  22  24  1   
 44  22  48  1   
 45  22  49  1   
 46  23  50  1   
 47  23  51  1   
 48  23  52  1   
 49  24  25  ar  
 50  24  26  ar  
 51  25  27  ar  
 52  25  53  1   
 53  26  28  ar  
 54  26  54  1   
 55  27  29  ar  
 56  28  29  ar  
 57  28  55  1   
 58  29  56  1   
@<TRIPOS>SUBSTRUCTURE
  1 ****  11 GROUP 4 **** **** 0

# MOE 2024.06 (io_trps.svl 2023.06)
