@<TRIPOS>MOLECULE
8-Azepan-1-yl-7-(2-methoxy-ethyl)-1,3-dimethyl-3,7-dihydro-purine-2,6-dione
50 52 1 0 0 
SMALL
USER_CHARGES


@<TRIPOS>ATOM
  1 O        0.9920     0.4350     1.3370 O.2   1 <1>  -0.5740 
  2 C        1.9860     1.0040     0.9320 C.2   1 <1>   0.6860 
  3 N        1.9720     2.3800     0.7380 N.am  1 <1>  -0.4260 
  4 N        3.1340     0.2760     0.6550 N.am  1 <1>  -0.4410 
  5 C        3.0720     3.0420     0.2060 C.2   1 <1>   0.6990 
  6 C        0.7300     3.1460     1.0720 C.3   1 <1>   0.0520 
  7 C        4.2150     0.9490     0.1190 C.2   1 <1>   0.4210 
  8 C        3.1790    -1.1990     0.8900 C.3   1 <1>   0.0520 
  9 O        3.0390     4.2480     0.0290 O.2   1 <1>  -0.5740 
 10 C        4.2390     2.2730    -0.1200 C.2   1 <1>   0.2710 
 11 N        5.4070     0.4260    -0.2550 N.pl3 1 <1>  -0.7040 
 12 N        5.5110     2.5600    -0.6660 N.pl3 1 <1>  -0.7670 
 13 C        6.1910     1.3950    -0.7360 C.cat 1 <1>   1.0690 
 14 C        5.8840     3.9720    -0.9940 C.3   1 <1>   0.3480 
 15 N        7.4450     1.1130    -1.1810 N.pl3 1 <1>  -0.5960 
 16 C        6.2790     4.7510     0.2650 C.3   1 <1>   0.1130 
 17 C        8.0540    -0.2460    -1.0330 C.3   1 <1>   0.1600 
 18 C        8.4280     2.0660    -1.7730 C.3   1 <1>   0.1600 
 19 O        7.0680     5.8270    -0.1260 O.3   1 <1>  -0.5650 
 20 C        8.7850    -0.3670     0.3080 C.3   1 <1>  -0.1670 
 21 C        9.2270     2.8240    -0.7030 C.3   1 <1>  -0.1670 
 22 C        7.4540     6.6580     0.9220 C.3   1 <1>   0.0320 
 23 C        9.9220     0.6510     0.5120 C.3   1 <1>  -0.1670 
 24 C        9.4350     2.1030     0.6420 C.3   1 <1>  -0.1670 
 25 H        0.2540     2.7250     1.9420 H     1 <1>   0.0720 
 26 H        0.0440     3.0980     0.2450 H     1 <1>   0.0720 
 27 H        0.9560     4.1770     1.2810 H     1 <1>   0.0720 
 28 H        2.4310    -1.4910     1.6090 H     1 <1>   0.0720 
 29 H        4.1400    -1.4880     1.2760 H     1 <1>   0.0720 
 30 H        2.9870    -1.7190    -0.0320 H     1 <1>   0.0720 
 31 H        5.6870    -0.5450    -0.1840 H     1 <1>   0.4450 
 32 H        5.0510     4.4680    -1.4630 H     1 <1>   0.0720 
 33 H        6.6920     4.0080    -1.6910 H     1 <1>   0.0720 
 34 H        6.8620     4.1360     0.9280 H     1 <1>   0.0720 
 35 H        5.4060     5.1270     0.7700 H     1 <1>   0.0720 
 36 H        8.7510    -0.4330    -1.8330 H     1 <1>   0.0720 
 37 H        7.3040    -1.0130    -1.1040 H     1 <1>   0.0720 
 38 H        7.9530     2.7390    -2.4610 H     1 <1>   0.0720 
 39 H        9.1350     1.5160    -2.3710 H     1 <1>   0.0720 
 40 H        9.2130    -1.3530     0.3620 H     1 <1>   0.0720 
 41 H        8.0820    -0.2880     1.1180 H     1 <1>   0.0720 
 42 H        8.7670     3.7760    -0.5160 H     1 <1>   0.0720 
 43 H       10.1930     3.0480    -1.1210 H     1 <1>   0.0720 
 44 H        8.0570     7.4520     0.5160 H     1 <1>   0.0720 
 45 H        8.0320     6.0930     1.6330 H     1 <1>   0.0720 
 46 H        6.5780     7.0730     1.3890 H     1 <1>   0.0720 
 47 H       10.6480     0.5710    -0.2800 H     1 <1>   0.0720 
 48 H       10.4290     0.3910     1.4270 H     1 <1>   0.0720 
 49 H        8.5300     2.1320     1.2240 H     1 <1>   0.0720 
 50 H       10.1740     2.6580     1.1950 H     1 <1>   0.0720 
@<TRIPOS>BOND
  1   1   2  2   
  2   2   3  am  
  3   2   4  am  
  4   3   5  am  
  5   3   6  1   
  6   4   7  1   
  7   4   8  1   
  8   5   9  2   
  9   5  10  1   
 10   6  25  1   
 11   6  26  1   
 12   6  27  1   
 13   7  10  2   
 14   7  11  1   
 15   8  28  1   
 16   8  29  1   
 17   8  30  1   
 18  10  12  1   
 19  11  13  ar  
 20  11  31  1   
 21  12  13  ar  
 22  12  14  1   
 23  13  15  ar  
 24  14  16  1   
 25  14  32  1   
 26  14  33  1   
 27  15  17  1   
 28  15  18  1   
 29  16  19  1   
 30  16  34  1   
 31  16  35  1   
 32  17  20  1   
 33  17  36  1   
 34  17  37  1   
 35  18  21  1   
 36  18  38  1   
 37  18  39  1   
 38  19  22  1   
 39  20  23  1   
 40  20  40  1   
 41  20  41  1   
 42  21  24  1   
 43  21  42  1   
 44  21  43  1   
 45  22  44  1   
 46  22  45  1   
 47  22  46  1   
 48  23  24  1   
 49  23  47  1   
 50  23  48  1   
 51  24  49  1   
 52  24  50  1   
@<TRIPOS>SUBSTRUCTURE
  1 ****  12 GROUP 4 **** **** 0

# MOE 2024.06 (io_trps.svl 2023.06)
