@<TRIPOS>MOLECULE
1,3-Dimethyl-8-(3-methyl-piperidin-1-ylmethyl)-7-phenethyl-3,7-dihydro-purine-2,
59 62 1 0 0 
SMALL
USER_CHARGES


@<TRIPOS>ATOM
  1 O        0.5900    -0.0350     0.9490 O.2   1 <1>  -0.5700 
  2 C        1.5360     0.6810     0.6950 C.2   1 <1>   0.6900 
  3 N        1.3220     1.9850     0.2580 N.am  1 <1>  -0.4200 
  4 N        2.8280     0.1960     0.8340 N.am  1 <1>  -0.4360 
  5 C        2.3830     2.8070    -0.1020 C.2   1 <1>   0.7030 
  6 C       -0.0840     2.4840     0.1400 C.3   1 <1>   0.0600 
  7 C        3.8750     1.0240     0.4770 C.2   1 <1>   0.4260 
  8 C        3.0810    -1.1920     1.3220 C.3   1 <1>   0.0600 
  9 O        2.1820     3.9370    -0.5130 O.2   1 <1>  -0.5700 
 10 C        3.7160     2.2890     0.0210 C.2   1 <1>   0.2770 
 11 N        5.2010     0.7510     0.5010 N.pl3 1 <1>  -0.7000 
 12 N        5.0010     2.7890    -0.2340 N.pl3 1 <1>  -0.7640 
 13 C        5.8590     1.8190     0.0700 C.cat 1 <1>   0.6560 
 14 C        5.2700     4.1590    -0.7620 C.3   1 <1>   0.3540 
 15 C        7.3940     1.8310    -0.0250 C.3   1 <1>   0.2540 
 16 C        5.2050     5.1940     0.3620 C.3   1 <1>  -0.0170 
 17 N        7.9540     0.4570     0.0730 N.3   1 <1>  -0.8100 
 18 C        5.5210     6.5670    -0.2020 C.ar  1 <1>  -0.1430 
 19 C        7.9070    -0.2440    -1.2290 C.3   1 <1>   0.1100 
 20 C        9.3290     0.4700     0.6020 C.3   1 <1>   0.1100 
 21 C        4.5270     7.3000    -0.8320 C.ar  1 <1>  -0.1500 
 22 C        6.7990     7.0960    -0.1010 C.ar  1 <1>  -0.1500 
 23 C        8.3300    -1.7110    -1.0620 C.3   1 <1>  -0.0800 
 24 C        9.8060    -0.9650     0.8390 C.3   1 <1>  -0.1600 
 25 C        4.8090     8.5470    -1.3620 C.ar  1 <1>  -0.1500 
 26 C        7.0810     8.3440    -0.6320 C.ar  1 <1>  -0.1500 
 27 C        9.7340    -1.7990    -0.4460 C.3   1 <1>  -0.1600 
 28 C        8.2930    -2.4450    -2.4080 C.3   1 <1>  -0.2400 
 29 C        6.0860     9.0690    -1.2630 C.ar  1 <1>  -0.1500 
 30 H       -0.5130     2.1380    -0.7850 H     1 <1>   0.0800 
 31 H       -0.1180     3.5590     0.1610 H     1 <1>   0.0800 
 32 H       -0.6800     2.1140     0.9570 H     1 <1>   0.0800 
 33 H        2.2310    -1.5640     1.8710 H     1 <1>   0.0800 
 34 H        3.9340    -1.2090     1.9770 H     1 <1>   0.0800 
 35 H        3.2600    -1.8440     0.4840 H     1 <1>   0.0800 
 36 H        5.7020    -0.1040     0.7690 H     1 <1>   0.4500 
 37 H        4.5450     4.4040    -1.5210 H     1 <1>   0.0800 
 38 H        6.2440     4.1940    -1.2200 H     1 <1>   0.0800 
 39 H        7.7590     2.4270     0.7930 H     1 <1>   0.0800 
 40 H        7.7070     2.2940    -0.9440 H     1 <1>   0.0800 
 41 H        5.9110     4.9480     1.1330 H     1 <1>   0.0800 
 42 H        4.2200     5.2100     0.7930 H     1 <1>   0.0800 
 43 H        8.5650     0.2420    -1.9310 H     1 <1>   0.0800 
 44 H        6.9070    -0.2150    -1.6290 H     1 <1>   0.0800 
 45 H        9.3580     1.0020     1.5390 H     1 <1>   0.0800 
 46 H        9.9910     0.9640    -0.0920 H     1 <1>   0.0800 
 47 H        3.5260     6.9100    -0.9140 H     1 <1>   0.1500 
 48 H        7.5860     6.5520     0.3900 H     1 <1>   0.1500 
 49 H        7.6300    -2.1900    -0.3990 H     1 <1>   0.0800 
 50 H        9.1940    -1.4170     1.6010 H     1 <1>   0.0800 
 51 H       10.8190    -0.9500     1.2010 H     1 <1>   0.0800 
 52 H        4.0340     9.1140    -1.8490 H     1 <1>   0.1500 
 53 H        8.0730     8.7530    -0.5520 H     1 <1>   0.1500 
 54 H       10.4610    -1.4270    -1.1480 H     1 <1>   0.0800 
 55 H        9.9770    -2.8240    -0.2270 H     1 <1>   0.0800 
 56 H        8.9790    -1.9980    -3.1070 H     1 <1>   0.0800 
 57 H        7.3030    -2.4120    -2.8280 H     1 <1>   0.0800 
 58 H        8.5670    -3.4770    -2.2760 H     1 <1>   0.0800 
 59 H        6.3050    10.0400    -1.6740 H     1 <1>   0.1500 
@<TRIPOS>BOND
  1   1   2  2   
  2   2   3  am  
  3   2   4  am  
  4   3   5  am  
  5   3   6  1   
  6   4   7  1   
  7   4   8  1   
  8   5   9  2   
  9   5  10  1   
 10   6  30  1   
 11   6  31  1   
 12   6  32  1   
 13   7  10  2   
 14   7  11  1   
 15   8  33  1   
 16   8  34  1   
 17   8  35  1   
 18  10  12  1   
 19  11  13  ar  
 20  11  36  1   
 21  12  13  ar  
 22  12  14  1   
 23  13  15  1   
 24  14  16  1   
 25  14  37  1   
 26  14  38  1   
 27  15  17  1   
 28  15  39  1   
 29  15  40  1   
 30  16  18  1   
 31  16  41  1   
 32  16  42  1   
 33  17  19  1   
 34  17  20  1   
 35  18  21  ar  
 36  18  22  ar  
 37  19  23  1   
 38  19  43  1   
 39  19  44  1   
 40  20  24  1   
 41  20  45  1   
 42  20  46  1   
 43  21  25  ar  
 44  21  47  1   
 45  22  26  ar  
 46  22  48  1   
 47  23  27  1   
 48  23  28  1   
 49  23  49  1   
 50  24  27  1   
 51  24  50  1   
 52  24  51  1   
 53  25  29  ar  
 54  25  52  1   
 55  26  29  ar  
 56  26  53  1   
 57  27  54  1   
 58  27  55  1   
 59  28  56  1   
 60  28  57  1   
 61  28  58  1   
 62  29  59  1   
@<TRIPOS>SUBSTRUCTURE
  1 ****  12 GROUP 4 **** **** 0

# MOE 2024.06 (io_trps.svl 2023.06)
