@<TRIPOS>MOLECULE
(4-Ethylsulfanyl-6-morpholin-4-yl-[1,3,5]triazin-2-yl)-isopropyl-amine
40 41 1 0 0 
SMALL
USER_CHARGES


@<TRIPOS>ATOM
  1 S        0.0830     0.1600     0.0880 S.3   1 <1>  -0.3320 
  2 C        0.0920    -1.6270     0.1420 C.ar  1 <1>   0.7220 
  3 C        1.8560     0.6840     0.1090 C.3   1 <1>   0.0700 
  4 N        1.2560    -2.2030     0.2030 N.ar  1 <1>  -0.6200 
  5 N       -1.0800    -2.1780     0.1150 N.ar  1 <1>  -0.6200 
  6 C        2.3980     0.6090    -1.3190 C.3   1 <1>  -0.2400 
  7 C        1.1810    -3.5120     0.2340 C.ar  1 <1>   0.7200 
  8 C       -1.0150    -3.4830     0.1540 C.ar  1 <1>   0.7200 
  9 N        0.0680    -4.2020     0.2120 N.ar  1 <1>  -0.6200 
 10 N        2.3660    -4.2110     0.2920 N.pl3 1 <1>  -0.8380 
 11 N       -2.1640    -4.1910     0.1310 N.pl3 1 <1>  -0.8690 
 12 C        2.4370    -5.7050     0.3800 C.3   1 <1>   0.2090 
 13 C        3.7160    -3.5730     0.1740 C.3   1 <1>   0.2090 
 14 C       -3.5230    -3.6780    -0.0450 C.3   1 <1>   0.2890 
 15 C        3.4860    -6.1450     1.4170 C.3   1 <1>   0.1200 
 16 C        4.6840    -4.1410     1.2270 C.3   1 <1>   0.1200 
 17 C       -4.4020    -4.3120     1.0260 C.3   1 <1>  -0.2400 
 18 C       -3.9910    -4.0560    -1.4440 C.3   1 <1>  -0.2400 
 19 O        4.7250    -5.5400     1.1710 O.3   1 <1>  -0.5600 
 20 H        2.3880     0.0370     0.7830 H     1 <1>   0.0800 
 21 H        1.8770     1.6930     0.4800 H     1 <1>   0.0800 
 22 H        2.3510    -0.4010    -1.6840 H     1 <1>   0.0800 
 23 H        3.4220     0.9340    -1.3380 H     1 <1>   0.0800 
 24 H        1.8210     1.2440    -1.9670 H     1 <1>   0.0800 
 25 H       -2.0450    -5.2000     0.0930 H     1 <1>   0.4000 
 26 H        2.7040    -6.1020    -0.5840 H     1 <1>   0.0800 
 27 H        1.4870    -6.1260     0.6580 H     1 <1>   0.0800 
 28 H        3.6600    -2.5070     0.3010 H     1 <1>   0.0800 
 29 H        4.1120    -3.7670    -0.8070 H     1 <1>   0.0800 
 30 H       -3.5410    -2.6060     0.0670 H     1 <1>   0.0800 
 31 H        3.6250    -7.2100     1.3720 H     1 <1>   0.0800 
 32 H        3.1630    -5.8800     2.4080 H     1 <1>   0.0800 
 33 H        4.3770    -3.8440     2.2150 H     1 <1>   0.0800 
 34 H        5.6790    -3.7760     1.0500 H     1 <1>   0.0800 
 35 H       -4.4080    -5.3830     0.9310 H     1 <1>   0.0800 
 36 H       -5.4100    -3.9520     0.9300 H     1 <1>   0.0800 
 37 H       -4.0380    -4.0420     2.0000 H     1 <1>   0.0800 
 38 H       -3.9840    -5.1230    -1.5740 H     1 <1>   0.0800 
 39 H       -3.3450    -3.6040    -2.1760 H     1 <1>   0.0800 
 40 H       -4.9890    -3.6940    -1.6060 H     1 <1>   0.0800 
@<TRIPOS>BOND
  1   1   2  1   
  2   1   3  1   
  3   2   4  ar  
  4   2   5  ar  
  5   3   6  1   
  6   3  20  1   
  7   3  21  1   
  8   4   7  ar  
  9   5   8  ar  
 10   6  22  1   
 11   6  23  1   
 12   6  24  1   
 13   7   9  ar  
 14   7  10  1   
 15   8   9  ar  
 16   8  11  1   
 17  10  12  1   
 18  10  13  1   
 19  11  14  1   
 20  11  25  1   
 21  12  15  1   
 22  12  26  1   
 23  12  27  1   
 24  13  16  1   
 25  13  28  1   
 26  13  29  1   
 27  14  17  1   
 28  14  18  1   
 29  14  30  1   
 30  15  19  1   
 31  15  31  1   
 32  15  32  1   
 33  16  19  1   
 34  16  33  1   
 35  16  34  1   
 36  17  35  1   
 37  17  36  1   
 38  17  37  1   
 39  18  38  1   
 40  18  39  1   
 41  18  40  1   
@<TRIPOS>SUBSTRUCTURE
  1 ****   7 GROUP 4 **** **** 0

# MOE 2024.06 (io_trps.svl 2023.06)
