@<TRIPOS>MOLECULE
N-Allyl-2-[2-methyl-4-(pyrrolidine-1-sulfonyl)-phenoxy]-acetamide
45 46 1 0 0 
SMALL
USER_CHARGES


@<TRIPOS>ATOM
  1 S       -0.1290     0.7860    -0.9080 S.o2  1 <1>   1.4470 
  2 O       -0.4920    -0.0550    -2.0290 O.2   1 <1>  -0.6500 
  3 O       -0.8430     2.0250    -0.6910 O.2   1 <1>  -0.6500 
  4 N       -0.3270    -0.1420     0.4950 N.am  1 <1>  -0.8490 
  5 C        1.6530     1.1140    -0.9320 C.ar  1 <1>  -0.0090 
  6 C        0.1870    -1.4990     0.4060 C.3   1 <1>   0.1960 
  7 C       -1.7160    -0.2790     0.8880 C.3   1 <1>   0.1960 
  8 C        2.2970     1.6180     0.1910 C.ar  1 <1>  -0.1500 
  9 C        2.4160     0.8750    -2.0680 C.ar  1 <1>  -0.1500 
 10 C       -0.4410    -2.2130     1.5960 C.3   1 <1>  -0.1600 
 11 C       -1.7220    -1.4310     1.8870 C.3   1 <1>  -0.1600 
 12 C        3.6580     1.8750     0.1960 C.ar  1 <1>  -0.1430 
 13 C        3.7760     1.1260    -2.0850 C.ar  1 <1>  -0.1500 
 14 C        4.4050     1.6280    -0.9500 C.ar  1 <1>   0.0820 
 15 C        4.3160     2.4260     1.4530 C.3   1 <1>  -0.0970 
 16 O        5.7330     1.8970    -0.9030 O.3   1 <1>  -0.3630 
 17 C        6.5660     1.7750    -2.0490 C.3   1 <1>   0.1810 
 18 C        7.9910     2.2140    -1.7380 C.2   1 <1>   0.5690 
 19 O        8.8230     2.1430    -2.6090 O.2   1 <1>  -0.5700 
 20 N        8.2900     2.6710    -0.4960 N.am  1 <1>  -0.7300 
 21 C        9.6000     3.1560    -0.0530 C.3   1 <1>   0.2780 
 22 C        9.3560     4.3220     0.8800 C.2   1 <1>  -0.2880 
 23 C        9.6680     4.3560     2.1790 C.2   1 <1>  -0.3000 
 24 H        1.2630    -1.5120     0.4500 H     1 <1>   0.0800 
 25 H       -0.1450    -1.9680    -0.5070 H     1 <1>   0.0800 
 26 H       -2.3170    -0.5350     0.0290 H     1 <1>   0.0800 
 27 H       -2.0850     0.6370     1.3220 H     1 <1>   0.0800 
 28 H        1.7100     1.8090     1.0740 H     1 <1>   0.1500 
 29 H        1.9360     0.4870    -2.9520 H     1 <1>   0.1500 
 30 H        0.2260    -2.1600     2.4390 H     1 <1>   0.0800 
 31 H       -0.6360    -3.2450     1.3660 H     1 <1>   0.0800 
 32 H       -2.6030    -2.0360     1.7610 H     1 <1>   0.0800 
 33 H       -1.7040    -1.0420     2.8900 H     1 <1>   0.0800 
 34 H        4.3190     0.9220    -2.9870 H     1 <1>   0.1500 
 35 H        3.5990     2.5550     2.2440 H     1 <1>   0.0800 
 36 H        4.7640     3.3800     1.2410 H     1 <1>   0.0800 
 37 H        5.0810     1.7510     1.7910 H     1 <1>   0.0800 
 38 H        6.1670     2.3970    -2.8290 H     1 <1>   0.0800 
 39 H        6.5710     0.7460    -2.3590 H     1 <1>   0.0800 
 40 H        7.5450     2.7060     0.2040 H     1 <1>   0.3700 
 41 H       10.1910     3.4670    -0.9000 H     1 <1>   0.0800 
 42 H       10.1190     2.3640     0.4590 H     1 <1>   0.0800 
 43 H        8.8880     5.1500     0.3740 H     1 <1>   0.1500 
 44 H        9.4820     5.2020     2.8180 H     1 <1>   0.1500 
 45 H       10.1350     3.5460     2.7140 H     1 <1>   0.1500 
@<TRIPOS>BOND
  1   1   2  2   
  2   1   3  2   
  3   1   4  am  
  4   1   5  1   
  5   4   6  1   
  6   4   7  1   
  7   5   8  ar  
  8   5   9  ar  
  9   6  10  1   
 10   6  24  1   
 11   6  25  1   
 12   7  11  1   
 13   7  26  1   
 14   7  27  1   
 15   8  12  ar  
 16   8  28  1   
 17   9  13  ar  
 18   9  29  1   
 19  10  11  1   
 20  10  30  1   
 21  10  31  1   
 22  11  32  1   
 23  11  33  1   
 24  12  14  ar  
 25  12  15  1   
 26  13  14  ar  
 27  13  34  1   
 28  14  16  1   
 29  15  35  1   
 30  15  36  1   
 31  15  37  1   
 32  16  17  1   
 33  17  18  1   
 34  17  38  1   
 35  17  39  1   
 36  18  19  2   
 37  18  20  am  
 38  20  21  1   
 39  20  40  1   
 40  21  22  1   
 41  21  41  1   
 42  21  42  1   
 43  22  23  2   
 44  22  43  1   
 45  23  44  1   
 46  23  45  1   
@<TRIPOS>SUBSTRUCTURE
  1 ****  12 GROUP 4 **** **** 0

# MOE 2024.06 (io_trps.svl 2023.06)
