@<TRIPOS>MOLECULE
3-[3-(2-Chloro-phenyl)-[1,2,4]oxadiazol-5-yl]-N-cyclohexyl-propionamide
43 45 1 0 0 
SMALL
USER_CHARGES


@<TRIPOS>ATOM
  1 CL      -0.3370     0.2020    -0.2510 Cl    1 <1>  -0.1770 
  2 C        0.2180    -1.4450    -0.0620 C.ar  1 <1>   0.1770 
  3 C        1.5230    -1.7130     0.3520 C.ar  1 <1>   0.0540 
  4 C       -0.6910    -2.4550    -0.3190 C.ar  1 <1>  -0.1500 
  5 C        2.4880    -0.6700     0.6100 C.2   1 <1>   0.4620 
  6 C        1.8740    -3.0530     0.5170 C.ar  1 <1>  -0.1500 
  7 C       -0.3130    -3.7760    -0.1560 C.ar  1 <1>  -0.1500 
  8 N        3.1180    -0.5000     1.7160 N.2   1 <1>  -0.4100 
  9 N        2.8530     0.2200    -0.3150 N.2   1 <1>  -0.5650 
 10 C        0.9720    -4.0720     0.2650 C.ar  1 <1>  -0.1500 
 11 O        3.9050     0.5190     1.5680 O.3   1 <1>  -0.0190 
 12 C        3.7000     0.9020     0.3340 C.2   1 <1>   0.2980 
 13 C        4.4770     2.0900    -0.1970 C.3   1 <1>   0.0200 
 14 C        5.9660     1.7550    -0.3480 C.3   1 <1>  -0.0990 
 15 C        6.7450     2.9700    -0.7940 C.2   1 <1>   0.5690 
 16 O        6.5470     3.4090    -1.8990 O.2   1 <1>  -0.5700 
 17 N        7.6270     3.5300     0.0690 N.am  1 <1>  -0.7300 
 18 C        8.4520     4.7140    -0.2170 C.3   1 <1>   0.2200 
 19 C        9.9300     4.3250    -0.1100 C.3   1 <1>  -0.1600 
 20 C        8.0930     5.8200     0.7800 C.3   1 <1>  -0.1600 
 21 C       10.8400     5.5490    -0.2930 C.3   1 <1>  -0.1600 
 22 C        9.0000     7.0470     0.5990 C.3   1 <1>  -0.1600 
 23 C       10.4820     6.6610     0.7020 C.3   1 <1>  -0.1600 
 24 H       -1.6860    -2.2060    -0.6400 H     1 <1>   0.1500 
 25 H        2.8710    -3.2940     0.8460 H     1 <1>   0.1500 
 26 H       -1.0150    -4.5690    -0.3540 H     1 <1>   0.1500 
 27 H        1.2690    -5.0990     0.3970 H     1 <1>   0.1500 
 28 H        4.3500     2.9180     0.4770 H     1 <1>   0.0800 
 29 H        4.0750     2.3740    -1.1540 H     1 <1>   0.0800 
 30 H        6.0870     0.9820    -1.0850 H     1 <1>   0.0800 
 31 H        6.3600     1.3940     0.5850 H     1 <1>   0.0800 
 32 H        7.7730     3.1230     0.9920 H     1 <1>   0.3700 
 33 H        8.2530     5.0650    -1.2180 H     1 <1>   0.0800 
 34 H       10.1600     3.5960    -0.8680 H     1 <1>   0.0800 
 35 H       10.1210     3.8900     0.8550 H     1 <1>   0.0800 
 36 H        8.2030     5.4520     1.7850 H     1 <1>   0.0800 
 37 H        7.0690     6.1130     0.6320 H     1 <1>   0.0800 
 38 H       10.7350     5.9230    -1.2980 H     1 <1>   0.0800 
 39 H       11.8680     5.2590    -0.1570 H     1 <1>   0.0800 
 40 H        8.7660     7.7840     1.3470 H     1 <1>   0.0800 
 41 H        8.8140     7.4870    -0.3670 H     1 <1>   0.0800 
 42 H       11.0930     7.5260     0.5090 H     1 <1>   0.0800 
 43 H       10.6950     6.3260     1.7030 H     1 <1>   0.0800 
@<TRIPOS>BOND
  1   1   2  1   
  2   2   3  ar  
  3   2   4  ar  
  4   3   5  1   
  5   3   6  ar  
  6   4   7  ar  
  7   4  24  1   
  8   5   8  2   
  9   5   9  1   
 10   6  10  ar  
 11   6  25  1   
 12   7  10  ar  
 13   7  26  1   
 14   8  11  1   
 15   9  12  2   
 16  10  27  1   
 17  11  12  1   
 18  12  13  1   
 19  13  14  1   
 20  13  28  1   
 21  13  29  1   
 22  14  15  1   
 23  14  30  1   
 24  14  31  1   
 25  15  16  2   
 26  15  17  am  
 27  17  18  1   
 28  17  32  1   
 29  18  19  1   
 30  18  20  1   
 31  18  33  1   
 32  19  21  1   
 33  19  34  1   
 34  19  35  1   
 35  20  22  1   
 36  20  36  1   
 37  20  37  1   
 38  21  23  1   
 39  21  38  1   
 40  21  39  1   
 41  22  23  1   
 42  22  40  1   
 43  22  41  1   
 44  23  42  1   
 45  23  43  1   
@<TRIPOS>SUBSTRUCTURE
  1 ****  13 GROUP 4 **** **** 0

# MOE 2024.06 (io_trps.svl 2023.06)
