@<TRIPOS>MOLECULE
N-[5-Chloro-2-(4-propionyl-piperazin-1-yl)-phenyl]-3,5-dimethoxy-benzamide
56 58 1 0 0 
SMALL
USER_CHARGES


@<TRIPOS>ATOM
  1 CL      -0.7090     0.2830     1.5170 Cl    1 <1>  -0.1770 
  2 C       -1.5240     1.7850     1.1520 C.ar  1 <1>   0.1770 
  3 C       -2.8590     1.7640     0.7990 C.ar  1 <1>  -0.1500 
  4 C       -0.8140     2.9680     1.2240 C.ar  1 <1>  -0.1500 
  5 C       -3.5080     2.9560     0.5080 C.ar  1 <1>   0.1170 
  6 C       -1.4580     4.1600     0.9350 C.ar  1 <1>  -0.1500 
  7 N       -4.8590     3.0570     0.1430 N.am  1 <1>  -0.5470 
  8 C       -2.8000     4.1680     0.5760 C.ar  1 <1>   0.1000 
  9 C       -5.8730     2.1640    -0.0940 C.2   1 <1>   0.5440 
 10 N       -3.4580     5.3740     0.2770 N.pl3 1 <1>  -0.8380 
 11 O       -5.6610     0.9720     0.0060 O.2   1 <1>  -0.5700 
 12 C       -7.1960     2.6560    -0.4510 C.ar  1 <1>   0.0860 
 13 C       -2.9630     6.1270    -0.9160 C.3   1 <1>   0.2090 
 14 C       -3.8710     6.2240     1.4430 C.3   1 <1>   0.2090 
 15 C       -8.3140     1.8300    -0.3300 C.ar  1 <1>  -0.1500 
 16 C       -7.4100     3.9560    -0.9180 C.ar  1 <1>  -0.1500 
 17 C       -3.9720     7.2080    -1.3430 C.3   1 <1>   0.1400 
 18 C       -3.8750     7.7360     1.1350 C.3   1 <1>   0.1400 
 19 C       -9.5880     2.2680    -0.6440 C.ar  1 <1>   0.0830 
 20 C       -8.6860     4.4120    -1.2320 C.ar  1 <1>   0.0830 
 21 N       -4.4940     8.0320    -0.2000 N.am  1 <1>  -0.6600 
 22 O      -10.5980     1.3760    -0.4850 O.3   1 <1>  -0.3620 
 23 C       -9.7720     3.5680    -1.0950 C.ar  1 <1>  -0.1500 
 24 O       -8.9510     5.6670    -1.6750 O.3   1 <1>  -0.3630 
 25 C       -5.4990     8.9330    -0.4340 C.2   1 <1>   0.5690 
 26 C      -11.9310     1.7160    -0.7980 C.3   1 <1>   0.0400 
 27 C       -7.9350     6.6370    -1.8190 C.3   1 <1>   0.0400 
 28 O       -5.9810     9.0470    -1.5370 O.2   1 <1>  -0.5700 
 29 C       -6.0410     9.8000     0.7010 C.3   1 <1>  -0.0990 
 30 C       -7.1090    10.8250     0.2790 C.3   1 <1>  -0.2400 
 31 H       -3.3760     0.8240     0.7550 H     1 <1>   0.1500 
 32 H        0.2240     2.9520     1.5030 H     1 <1>   0.1500 
 33 H       -0.9180     5.0870     0.9890 H     1 <1>   0.1500 
 34 H       -5.0890     4.0460     0.0250 H     1 <1>   0.3700 
 35 H       -2.8040     5.4430    -1.7320 H     1 <1>   0.0800 
 36 H       -2.0190     6.5910    -0.6850 H     1 <1>   0.0800 
 37 H       -3.2210     6.0340     2.2800 H     1 <1>   0.0800 
 38 H       -4.8650     5.9330     1.7360 H     1 <1>   0.0800 
 39 H       -8.1900     0.8200     0.0190 H     1 <1>   0.1500 
 40 H       -6.5710     4.6110    -1.0420 H     1 <1>   0.1500 
 41 H       -4.8020     6.7260    -1.8270 H     1 <1>   0.0800 
 42 H       -3.5120     7.8610    -2.0640 H     1 <1>   0.0800 
 43 H       -2.8600     8.0930     1.1310 H     1 <1>   0.0800 
 44 H       -4.3920     8.2470     1.9270 H     1 <1>   0.0800 
 45 H      -10.7420     3.9490    -1.3470 H     1 <1>   0.1500 
 46 H      -12.5490     0.8580    -0.6040 H     1 <1>   0.0800 
 47 H      -11.9880     1.9800    -1.8390 H     1 <1>   0.0800 
 48 H      -12.2380     2.5370    -0.1740 H     1 <1>   0.0800 
 49 H       -8.3880     7.5560    -2.1460 H     1 <1>   0.0800 
 50 H       -7.2280     6.3020    -2.5570 H     1 <1>   0.0800 
 51 H       -7.4560     6.7900    -0.8690 H     1 <1>   0.0800 
 52 H       -5.2180    10.3300     1.1430 H     1 <1>   0.0800 
 53 H       -6.4680     9.1520     1.4440 H     1 <1>   0.0800 
 54 H       -6.7070    11.4960    -0.4600 H     1 <1>   0.0800 
 55 H       -7.4330    11.3990     1.1290 H     1 <1>   0.0800 
 56 H       -7.9610    10.3230    -0.1450 H     1 <1>   0.0800 
@<TRIPOS>BOND
  1   1   2  1   
  2   2   3  ar  
  3   2   4  ar  
  4   3   5  ar  
  5   3  31  1   
  6   4   6  ar  
  7   4  32  1   
  8   5   7  1   
  9   5   8  ar  
 10   6   8  ar  
 11   6  33  1   
 12   7   9  am  
 13   7  34  1   
 14   8  10  1   
 15   9  11  2   
 16   9  12  1   
 17  10  13  1   
 18  10  14  1   
 19  12  15  ar  
 20  12  16  ar  
 21  13  17  1   
 22  13  35  1   
 23  13  36  1   
 24  14  18  1   
 25  14  37  1   
 26  14  38  1   
 27  15  19  ar  
 28  15  39  1   
 29  16  20  ar  
 30  16  40  1   
 31  17  21  1   
 32  17  41  1   
 33  17  42  1   
 34  18  21  1   
 35  18  43  1   
 36  18  44  1   
 37  19  22  1   
 38  19  23  ar  
 39  20  23  ar  
 40  20  24  1   
 41  21  25  am  
 42  22  26  1   
 43  23  45  1   
 44  24  27  1   
 45  25  28  2   
 46  25  29  1   
 47  26  46  1   
 48  26  47  1   
 49  26  48  1   
 50  27  49  1   
 51  27  50  1   
 52  27  51  1   
 53  29  30  1   
 54  29  52  1   
 55  29  53  1   
 56  30  54  1   
 57  30  55  1   
 58  30  56  1   
@<TRIPOS>SUBSTRUCTURE
  1 ****   7 GROUP 4 **** **** 0

# MOE 2024.06 (io_trps.svl 2023.06)
