@<TRIPOS>MOLECULE
7-(2-Methoxy-ethyl)-8-(3-methoxy-propylamino)-3-methyl-3,7-dihydro-purine-2,6-di
44 45 1 0 0 
SMALL
USER_CHARGES


@<TRIPOS>ATOM
  1 O        1.4270    -0.3130    -1.8660 O.2   1 <1>  -0.5750 
  2 C        2.2280     0.4220    -1.3380 C.2   1 <1>   0.6860 
  3 N        3.4510    -0.0310    -0.8630 N.am  1 <1>  -0.4430 
  4 N        1.9110     1.7430    -1.2100 N.am  1 <1>  -0.4960 
  5 C        4.2930     0.8980    -0.2690 C.2   1 <1>   0.4200 
  6 C        3.8530    -1.4610    -0.9970 C.3   1 <1>   0.0510 
  7 C        2.7320     2.6700    -0.6360 C.2   1 <1>   0.6990 
  8 N        5.5270     0.6800     0.2570 N.pl3 1 <1>  -0.7040 
  9 C        3.9940     2.2110    -0.1340 C.2   1 <1>   0.2690 
 10 O        2.3650     3.8280    -0.5810 O.2   1 <1>  -0.5750 
 11 C        6.0000     1.8420     0.6960 C.cat 1 <1>   1.0680 
 12 N        5.0990     2.8070     0.5060 N.pl3 1 <1>  -0.7680 
 13 N        7.2040     2.0070     1.2230 N.pl3 1 <1>  -0.7190 
 14 C        5.1550     4.2370     0.9470 C.3   1 <1>   0.3470 
 15 C        8.2630     1.0010     1.4370 C.3   1 <1>   0.1590 
 16 C        6.1730     5.0670     0.1490 C.3   1 <1>   0.1110 
 17 C        8.9290     0.6890     0.1000 C.3   1 <1>  -0.1680 
 18 O        7.4620     4.5620     0.3500 O.3   1 <1>  -0.5650 
 19 C       10.0050    -0.3810     0.2520 C.3   1 <1>   0.1110 
 20 C        8.4500     5.2710    -0.3340 C.3   1 <1>   0.0310 
 21 O       10.3420    -0.7880    -1.0270 O.3   1 <1>  -0.5650 
 22 C       11.3750    -1.7190    -1.0710 C.3   1 <1>   0.0310 
 23 H        1.0080     2.0440    -1.5720 H     1 <1>   0.3630 
 24 H        3.0820    -2.0340    -1.4830 H     1 <1>   0.0710 
 25 H        4.0260    -1.8850    -0.0230 H     1 <1>   0.0710 
 26 H        4.7510    -1.5350    -1.5850 H     1 <1>   0.0710 
 27 H        6.0550    -0.1870     0.2640 H     1 <1>   0.4440 
 28 H        7.5330     2.9870     1.2020 H     1 <1>   0.4440 
 29 H        5.4120     4.2810     1.9920 H     1 <1>   0.0710 
 30 H        4.1850     4.6900     0.8400 H     1 <1>   0.0710 
 31 H        7.8390     0.1060     1.8620 H     1 <1>   0.0710 
 32 H        8.9910     1.3910     2.1300 H     1 <1>   0.0710 
 33 H        6.1520     6.0890     0.4860 H     1 <1>   0.0710 
 34 H        5.9400     5.0350    -0.9020 H     1 <1>   0.0710 
 35 H        9.3850     1.5790    -0.2980 H     1 <1>   0.0710 
 36 H        8.1960     0.3280    -0.5990 H     1 <1>   0.0710 
 37 H        9.6350    -1.2380     0.7910 H     1 <1>   0.0710 
 38 H       10.8810     0.0150     0.7400 H     1 <1>   0.0710 
 39 H        9.4020     4.8150    -0.1250 H     1 <1>   0.0710 
 40 H        8.4580     6.2930     0.0060 H     1 <1>   0.0710 
 41 H        8.2540     5.2280    -1.3920 H     1 <1>   0.0710 
 42 H       11.5520    -1.9720    -2.1010 H     1 <1>   0.0710 
 43 H       11.0850    -2.6000    -0.5260 H     1 <1>   0.0710 
 44 H       12.2640    -1.2850    -0.6470 H     1 <1>   0.0710 
@<TRIPOS>BOND
  1   1   2  2   
  2   2   3  am  
  3   2   4  am  
  4   3   5  1   
  5   3   6  1   
  6   4   7  am  
  7   4  23  1   
  8   5   8  1   
  9   5   9  2   
 10   6  24  1   
 11   6  25  1   
 12   6  26  1   
 13   7   9  1   
 14   7  10  2   
 15   8  11  ar  
 16   8  27  1   
 17   9  12  1   
 18  11  12  ar  
 19  11  13  ar  
 20  12  14  1   
 21  13  15  1   
 22  13  28  1   
 23  14  16  1   
 24  14  29  1   
 25  14  30  1   
 26  15  17  1   
 27  15  31  1   
 28  15  32  1   
 29  16  18  1   
 30  16  33  1   
 31  16  34  1   
 32  17  19  1   
 33  17  35  1   
 34  17  36  1   
 35  18  20  1   
 36  19  21  1   
 37  19  37  1   
 38  19  38  1   
 39  20  39  1   
 40  20  40  1   
 41  20  41  1   
 42  21  22  1   
 43  22  42  1   
 44  22  43  1   
 45  22  44  1   
@<TRIPOS>SUBSTRUCTURE
  1 ****  11 GROUP 4 **** **** 0

# MOE 2024.06 (io_trps.svl 2023.06)
