@<TRIPOS>MOLECULE
2-(3-Allyl-4-oxo-3,4,5,6,7,8-hexahydro-benzo[4,5]thieno[2,3-d]pyrimidin-2-ylsulf
52 55 1 0 0 
SMALL
USER_CHARGES


@<TRIPOS>ATOM
  1 S       -0.4800     0.3720     2.1160 S.3   1 <1>  -0.0800 
  2 C        0.9300     0.6430     1.1080 C.2   1 <1>   0.1660 
  3 C       -1.3710     1.6120     1.2470 C.2   1 <1>  -0.1400 
  4 N        2.0720    -0.0580     1.2770 N.2   1 <1>  -0.5760 
  5 C        0.7030     1.6140     0.1820 C.2   1 <1>  -0.0860 
  6 C       -0.6290     2.1550     0.2690 C.2   1 <1>  -0.1810 
  7 C       -2.7940     1.9480     1.6340 C.3   1 <1>   0.0200 
  8 C        3.0190     0.2600     0.4620 C.2   1 <1>   0.6510 
  9 C        1.7870     1.9270    -0.6880 C.2   1 <1>   0.7160 
 10 C       -1.1850     3.2450    -0.6360 C.3   1 <1>   0.0210 
 11 C       -3.2000     3.2690     0.9540 C.3   1 <1>  -0.1600 
 12 S        4.5400    -0.6590     0.6360 S.3   1 <1>  -0.3710 
 13 N        2.9590     1.2170    -0.5280 N.am  1 <1>  -0.4200 
 14 O        1.7020     2.7880    -1.5550 O.2   1 <1>  -0.5700 
 15 C       -2.7200     3.3380    -0.5110 C.3   1 <1>  -0.1600 
 16 C        4.2670    -1.7240     2.1400 C.3   1 <1>   0.1310 
 17 C        4.1290     1.5630    -1.3760 C.3   1 <1>   0.2780 
 18 C        5.3830    -2.7490     2.2820 C.2   1 <1>   0.5690 
 19 C        4.9570     2.6240    -0.6750 C.2   1 <1>  -0.2880 
 20 O        6.1680    -2.6350     3.1890 O.2   1 <1>  -0.5700 
 21 N        5.5030    -3.7920     1.4250 N.am  1 <1>  -0.7300 
 22 C        6.2030     2.4590    -0.2190 C.2   1 <1>  -0.3000 
 23 C        4.6970    -4.1180     0.2350 C.3   1 <1>   0.2200 
 24 C        4.3760    -5.6070     0.2540 C.3   1 <1>  -0.1600 
 25 C        5.5680    -3.9610    -1.0040 C.3   1 <1>  -0.1600 
 26 C        5.6190    -6.3110    -0.3040 C.3   1 <1>  -0.1600 
 27 C        6.3910    -5.2500    -1.1000 C.3   1 <1>  -0.1600 
 28 H       -2.8750     2.0450     2.7020 H     1 <1>   0.0800 
 29 H       -3.4400     1.1500     1.3110 H     1 <1>   0.0800 
 30 H       -0.9270     3.0420    -1.6600 H     1 <1>   0.0800 
 31 H       -0.7370     4.1840    -0.3590 H     1 <1>   0.0800 
 32 H       -2.7610     4.0870     1.4990 H     1 <1>   0.0800 
 33 H       -4.2690     3.3800     0.9970 H     1 <1>   0.0800 
 34 H       -3.1600     2.5200    -1.0570 H     1 <1>   0.0800 
 35 H       -3.0580     4.2530    -0.9640 H     1 <1>   0.0800 
 36 H        3.3190    -2.2150     2.0340 H     1 <1>   0.0800 
 37 H        4.2460    -1.0690     2.9920 H     1 <1>   0.0800 
 38 H        3.8010     1.9380    -2.3310 H     1 <1>   0.0800 
 39 H        4.7250     0.6920    -1.5770 H     1 <1>   0.0800 
 40 H        4.4230     3.5550    -0.5760 H     1 <1>   0.1500 
 41 H        6.3010    -4.4100     1.5810 H     1 <1>   0.3700 
 42 H        6.7670     3.2310     0.2760 H     1 <1>   0.1500 
 43 H        6.7640     1.5430    -0.2960 H     1 <1>   0.1500 
 44 H        3.8070    -3.5140     0.1860 H     1 <1>   0.0800 
 45 H        3.5490    -5.7850    -0.4100 H     1 <1>   0.0800 
 46 H        4.1090    -5.9560     1.2370 H     1 <1>   0.0800 
 47 H        6.1820    -3.0780    -0.9610 H     1 <1>   0.0800 
 48 H        4.9270    -3.8920    -1.8650 H     1 <1>   0.0800 
 49 H        5.3400    -7.1430    -0.9280 H     1 <1>   0.0800 
 50 H        6.2310    -6.6740     0.5040 H     1 <1>   0.0800 
 51 H        7.3590    -5.0980    -0.6530 H     1 <1>   0.0800 
 52 H        6.5270    -5.5460    -2.1260 H     1 <1>   0.0800 
@<TRIPOS>BOND
  1   1   2  1   
  2   1   3  1   
  3   2   4  1   
  4   2   5  2   
  5   3   6  2   
  6   3   7  1   
  7   4   8  2   
  8   5   6  1   
  9   5   9  1   
 10   6  10  1   
 11   7  11  1   
 12   7  28  1   
 13   7  29  1   
 14   8  12  1   
 15   8  13  1   
 16   9  13  am  
 17   9  14  2   
 18  10  15  1   
 19  10  30  1   
 20  10  31  1   
 21  11  15  1   
 22  11  32  1   
 23  11  33  1   
 24  12  16  1   
 25  13  17  1   
 26  15  34  1   
 27  15  35  1   
 28  16  18  1   
 29  16  36  1   
 30  16  37  1   
 31  17  19  1   
 32  17  38  1   
 33  17  39  1   
 34  18  20  2   
 35  18  21  am  
 36  19  22  2   
 37  19  40  1   
 38  21  23  1   
 39  21  41  1   
 40  22  42  1   
 41  22  43  1   
 42  23  24  1   
 43  23  25  1   
 44  23  44  1   
 45  24  26  1   
 46  24  45  1   
 47  24  46  1   
 48  25  27  1   
 49  25  47  1   
 50  25  48  1   
 51  26  27  1   
 52  26  49  1   
 53  26  50  1   
 54  27  51  1   
 55  27  52  1   
@<TRIPOS>SUBSTRUCTURE
  1 ****   8 GROUP 4 **** **** 0

# MOE 2024.06 (io_trps.svl 2023.06)
