@<TRIPOS>MOLECULE
Cyclohexanecarboxylic acid [1-(3-p-tolyl-[1,2,4]oxadiazol-5-yl)-ethyl]-amide
46 48 1 0 0 
SMALL
USER_CHARGES


@<TRIPOS>ATOM
  1 O       -1.4920    -0.8400     2.0610 O.2   1 <1>  -0.5700 
  2 C       -2.2970    -0.4670     1.2480 C.2   1 <1>   0.5690 
  3 N       -2.8470    -1.4190     0.4570 N.am  1 <1>  -0.7300 
  4 C       -2.5620     1.0470     1.1840 C.3   1 <1>  -0.0190 
  5 C       -4.0450    -1.4620    -0.4100 C.3   1 <1>   0.4000 
  6 C       -4.0170     1.5100     0.9570 C.3   1 <1>  -0.1600 
  7 C       -1.6180     1.7390     0.1810 C.3   1 <1>  -0.1600 
  8 C       -4.6720    -2.8570    -0.3910 C.2   1 <1>   0.2980 
  9 C       -3.6420    -1.0620    -1.8300 C.3   1 <1>  -0.2400 
 10 C       -4.1300     3.0350     1.0760 C.3   1 <1>  -0.1600 
 11 C       -1.7440     3.2690     0.2520 C.3   1 <1>  -0.1600 
 12 O       -3.9310    -3.8840    -0.7180 O.3   1 <1>  -0.0190 
 13 N       -5.8730    -3.1310    -0.0810 N.2   1 <1>  -0.5650 
 14 C       -3.1970     3.7280     0.0740 C.3   1 <1>  -0.1600 
 15 N       -4.7280    -4.8980    -0.6060 N.2   1 <1>  -0.4100 
 16 C       -5.8780    -4.4610    -0.2280 C.2   1 <1>   0.4620 
 17 C       -7.0570    -5.2750     0.0180 C.ar  1 <1>   0.0540 
 18 C       -8.2620    -4.7150     0.4450 C.ar  1 <1>  -0.1500 
 19 C       -7.0320    -6.6590    -0.1640 C.ar  1 <1>  -0.1500 
 20 C       -9.3820    -5.4930     0.6780 C.ar  1 <1>  -0.1500 
 21 C       -8.1490    -7.4420     0.0680 C.ar  1 <1>  -0.1500 
 22 C       -9.3320    -6.8640     0.4920 C.ar  1 <1>  -0.1440 
 23 C      -10.5600    -7.7200     0.7460 C.3   1 <1>  -0.0970 
 24 H       -2.4620    -2.3490     0.6380 H     1 <1>   0.3700 
 25 H       -2.2870     1.4130     2.1590 H     1 <1>   0.0800 
 26 H       -4.7910    -0.7890    -0.0350 H     1 <1>   0.0800 
 27 H       -4.6660     1.0410     1.6770 H     1 <1>   0.0800 
 28 H       -4.3400     1.2460    -0.0300 H     1 <1>   0.0800 
 29 H       -1.8390     1.4080    -0.8170 H     1 <1>   0.0800 
 30 H       -0.6010     1.4590     0.4000 H     1 <1>   0.0800 
 31 H       -2.8790    -1.7200    -2.2050 H     1 <1>   0.0800 
 32 H       -3.2830    -0.0510    -1.8500 H     1 <1>   0.0800 
 33 H       -4.4970    -1.1270    -2.4790 H     1 <1>   0.0800 
 34 H       -3.8740     3.3410     2.0770 H     1 <1>   0.0800 
 35 H       -5.1460     3.3380     0.8900 H     1 <1>   0.0800 
 36 H       -1.1280     3.7170    -0.5090 H     1 <1>   0.0800 
 37 H       -1.3820     3.6090     1.2080 H     1 <1>   0.0800 
 38 H       -3.2550     4.7950     0.2060 H     1 <1>   0.0800 
 39 H       -3.5200     3.5040    -0.9290 H     1 <1>   0.0800 
 40 H       -8.3260    -3.6530     0.5980 H     1 <1>   0.1500 
 41 H       -6.1230    -7.1320    -0.4930 H     1 <1>   0.1500 
 42 H      -10.2940    -5.0260     1.0050 H     1 <1>   0.1500 
 43 H       -8.0920    -8.5060    -0.0850 H     1 <1>   0.1500 
 44 H      -11.1710    -7.2830     1.5150 H     1 <1>   0.0800 
 45 H      -10.2720    -8.7060     1.0610 H     1 <1>   0.0800 
 46 H      -11.1400    -7.7980    -0.1560 H     1 <1>   0.0800 
@<TRIPOS>BOND
  1   1   2  2   
  2   2   3  am  
  3   2   4  1   
  4   3   5  1   
  5   3  24  1   
  6   4   6  1   
  7   4   7  1   
  8   4  25  1   
  9   5   8  1   
 10   5   9  1   
 11   5  26  1   
 12   6  10  1   
 13   6  27  1   
 14   6  28  1   
 15   7  11  1   
 16   7  29  1   
 17   7  30  1   
 18   8  12  1   
 19   8  13  2   
 20   9  31  1   
 21   9  32  1   
 22   9  33  1   
 23  10  14  1   
 24  10  34  1   
 25  10  35  1   
 26  11  14  1   
 27  11  36  1   
 28  11  37  1   
 29  12  15  1   
 30  13  16  1   
 31  14  38  1   
 32  14  39  1   
 33  15  16  2   
 34  16  17  1   
 35  17  18  ar  
 36  17  19  ar  
 37  18  20  ar  
 38  18  40  1   
 39  19  21  ar  
 40  19  41  1   
 41  20  22  ar  
 42  20  42  1   
 43  21  22  ar  
 44  21  43  1   
 45  22  23  1   
 46  23  44  1   
 47  23  45  1   
 48  23  46  1   
@<TRIPOS>SUBSTRUCTURE
  1 ****   8 GROUP 4 **** **** 0

# MOE 2024.06 (io_trps.svl 2023.06)
