@<TRIPOS>MOLECULE
2-(8,8-Dimethyl-8,9-dihydro-6H-7-oxa-11-thia-2,4,10-triaza-benzo[b]fluoren-1-yla
47 50 1 0 0 
SMALL
USER_CHARGES


@<TRIPOS>ATOM
  1 S       -0.1680    -0.1480    -0.5790 S.3   1 <1>  -0.0800 
  2 C       -1.7470     0.5280    -0.1550 C.ar  1 <1>   0.2970 
  3 C        0.6720     1.2730     0.0740 C.ar  1 <1>   0.0400 
  4 N       -2.8670    -0.1200    -0.4120 N.ar  1 <1>  -0.5670 
  5 C       -1.5960     1.7690     0.4500 C.ar  1 <1>   0.0000 
  6 C        2.0280     1.5300     0.1210 C.ar  1 <1>   0.4100 
  7 C       -0.2220     2.1810     0.5740 C.ar  1 <1>   0.2560 
  8 C       -3.9530     0.5330    -0.0270 C.ar  1 <1>   0.1660 
  9 C       -2.7520     2.4240     0.8380 C.ar  1 <1>  -0.1500 
 10 N        2.4570     2.6600     0.6510 N.ar  1 <1>  -0.6200 
 11 N        2.9500     0.6440    -0.3790 N.pl3 1 <1>  -0.8690 
 12 N        0.2030     3.3220     1.1110 N.ar  1 <1>  -0.5660 
 13 C       -3.9520     1.7850     0.5890 C.ar  1 <1>  -0.1430 
 14 C       -5.2730    -0.1680    -0.2790 C.3   1 <1>  -0.0170 
 15 C        1.5160     3.4800     1.1110 C.ar  1 <1>   0.4700 
 16 C        4.4060     0.7210    -0.1340 C.3   1 <1>   0.2890 
 17 C       -5.2580     2.4670     0.9780 C.3   1 <1>   0.2630 
 18 C       -6.4650     0.8000    -0.2460 C.3   1 <1>   0.2800 
 19 C        5.0450     1.5820    -1.2440 C.3   1 <1>   0.1200 
 20 C        4.9290    -0.7240    -0.0650 C.3   1 <1>  -0.1600 
 21 O       -6.3560     1.6030     0.8870 O.3   1 <1>  -0.5600 
 22 C       -6.5540     1.6760    -1.5070 C.3   1 <1>  -0.2400 
 23 C       -7.7760     0.0300    -0.0790 C.3   1 <1>  -0.2400 
 24 O        6.3100     2.0380    -0.8820 O.3   1 <1>  -0.6800 
 25 C        6.3920    -0.8440     0.3870 C.3   1 <1>  -0.2400 
 26 H       -2.6960     3.3890     1.3100 H     1 <1>   0.1500 
 27 H        2.6130    -0.2600    -0.7190 H     1 <1>   0.4000 
 28 H       -5.3970    -0.9210     0.4780 H     1 <1>   0.0800 
 29 H       -5.2410    -0.6670    -1.2300 H     1 <1>   0.0800 
 30 H        1.8760     4.4000     1.5420 H     1 <1>   0.1500 
 31 H        4.5660     1.2020     0.8170 H     1 <1>   0.0800 
 32 H       -5.4420     3.3160     0.3430 H     1 <1>   0.0800 
 33 H       -5.2070     2.8080     1.9970 H     1 <1>   0.0800 
 34 H        4.4340     2.4470    -1.4340 H     1 <1>   0.0800 
 35 H        5.1430     1.0120    -2.1510 H     1 <1>   0.0800 
 36 H        4.8240    -1.1890    -1.0300 H     1 <1>   0.0800 
 37 H        4.3250    -1.2690     0.6390 H     1 <1>   0.0800 
 38 H       -5.6210     2.1690    -1.7140 H     1 <1>   0.0800 
 39 H       -7.3300     2.4110    -1.3960 H     1 <1>   0.0800 
 40 H       -6.7890     1.0640    -2.3590 H     1 <1>   0.0800 
 41 H       -7.7570    -0.5460     0.8290 H     1 <1>   0.0800 
 42 H       -7.9250    -0.6410    -0.9060 H     1 <1>   0.0800 
 43 H       -8.6050     0.7120    -0.0400 H     1 <1>   0.0800 
 44 H        6.2400     2.6710    -0.1400 H     1 <1>   0.4000 
 45 H        7.0540    -0.4120    -0.3430 H     1 <1>   0.0800 
 46 H        6.6560    -1.8790     0.5070 H     1 <1>   0.0800 
 47 H        6.5390    -0.3420     1.3270 H     1 <1>   0.0800 
@<TRIPOS>BOND
  1   1   2  1   
  2   1   3  1   
  3   2   4  ar  
  4   2   5  ar  
  5   3   6  ar  
  6   3   7  ar  
  7   4   8  ar  
  8   5   7  1   
  9   5   9  ar  
 10   6  10  ar  
 11   6  11  1   
 12   7  12  ar  
 13   8  13  ar  
 14   8  14  1   
 15   9  13  ar  
 16   9  26  1   
 17  10  15  ar  
 18  11  16  1   
 19  11  27  1   
 20  12  15  ar  
 21  13  17  1   
 22  14  18  1   
 23  14  28  1   
 24  14  29  1   
 25  15  30  1   
 26  16  19  1   
 27  16  20  1   
 28  16  31  1   
 29  17  21  1   
 30  17  32  1   
 31  17  33  1   
 32  18  21  1   
 33  18  22  1   
 34  18  23  1   
 35  19  24  1   
 36  19  34  1   
 37  19  35  1   
 38  20  25  1   
 39  20  36  1   
 40  20  37  1   
 41  22  38  1   
 42  22  39  1   
 43  22  40  1   
 44  23  41  1   
 45  23  42  1   
 46  23  43  1   
 47  24  44  1   
 48  25  45  1   
 49  25  46  1   
 50  25  47  1   
@<TRIPOS>SUBSTRUCTURE
  1 ****   5 GROUP 4 **** **** 0

# MOE 2024.06 (io_trps.svl 2023.06)
