@<TRIPOS>MOLECULE
7-(2-Ethoxy-ethyl)-8-[4-(2-fluoro-phenyl)-piperazin-1-ylmethyl]-1,3-dimethyl-3,7
62 65 1 0 0 
SMALL
USER_CHARGES


@<TRIPOS>ATOM
  1 F        0.7650     1.4730     1.4590 F     1 <1>  -0.1900 
  2 C        1.7530     1.3370     0.6050 C.ar  1 <1>   0.1900 
  3 C        1.9610     2.3100    -0.3810 C.ar  1 <1>   0.1000 
  4 C        2.5510     0.2160     0.7300 C.ar  1 <1>  -0.1500 
  5 N        1.1820     3.4620    -0.5490 N.pl3 1 <1>  -0.8380 
  6 C        3.0250     2.1040    -1.2500 C.ar  1 <1>  -0.1500 
  7 C        3.6030     0.0410    -0.1530 C.ar  1 <1>  -0.1500 
  8 C        1.2980     4.4760     0.5400 C.3   1 <1>   0.2090 
  9 C       -0.2320     3.2250    -0.9510 C.3   1 <1>   0.2090 
 10 C        3.8360     0.9860    -1.1400 C.ar  1 <1>  -0.1500 
 11 C        0.5590     5.7760     0.1650 C.3   1 <1>   0.1100 
 12 C       -0.9270     4.5520    -1.3020 C.3   1 <1>   0.1100 
 13 N       -0.8630     5.5280    -0.1820 N.3   1 <1>  -0.8100 
 14 C       -1.5660     6.7950    -0.5150 C.3   1 <1>   0.2540 
 15 C       -3.0910     6.6280    -0.4170 C.cat 1 <1>   0.6560 
 16 N       -3.6310     5.7320     0.4010 N.pl3 1 <1>  -0.7000 
 17 N       -4.0500     7.2710    -1.0800 N.pl3 1 <1>  -0.7640 
 18 C       -4.9770     5.8050     0.2860 C.2   1 <1>   0.4260 
 19 C       -5.2720     6.7630    -0.6250 C.2   1 <1>   0.2770 
 20 C       -3.8980     8.3740    -2.0800 C.3   1 <1>   0.3540 
 21 N       -5.9270     5.0520     0.9490 N.am  1 <1>  -0.4360 
 22 C       -6.6530     7.0330    -0.9060 C.2   1 <1>   0.7030 
 23 C       -3.6520     9.7240    -1.3910 C.3   1 <1>   0.1200 
 24 C       -7.2610     5.2720     0.6420 C.2   1 <1>   0.6900 
 25 C       -5.5260     4.0090     1.9390 C.3   1 <1>   0.0600 
 26 O       -6.9750     7.9040    -1.6970 O.2   1 <1>  -0.5700 
 27 N       -7.6170     6.2770    -0.2520 N.am  1 <1>  -0.4200 
 28 O       -2.5300     9.6260    -0.5630 O.3   1 <1>  -0.5600 
 29 O       -8.1200     4.5790     1.1480 O.2   1 <1>  -0.5700 
 30 C       -9.0680     6.5100    -0.5340 C.3   1 <1>   0.0600 
 31 C       -2.2210    10.8000     0.1130 C.3   1 <1>   0.1200 
 32 C       -1.0140    10.5110     0.9970 C.3   1 <1>  -0.2400 
 33 H        2.3510    -0.5030     1.5040 H     1 <1>   0.1500 
 34 H        3.2080     2.8340    -2.0160 H     1 <1>   0.1500 
 35 H        4.2370    -0.8260    -0.0730 H     1 <1>   0.1500 
 36 H        2.3380     4.6910     0.7110 H     1 <1>   0.0800 
 37 H        0.8830     4.0810     1.4510 H     1 <1>   0.0800 
 38 H       -0.7640     2.7450    -0.1490 H     1 <1>   0.0800 
 39 H       -0.2500     2.5710    -1.8060 H     1 <1>   0.0800 
 40 H        4.6540     0.8510    -1.8280 H     1 <1>   0.1500 
 41 H        1.0690     6.2290    -0.6690 H     1 <1>   0.0800 
 42 H        0.6150     6.4520     1.0000 H     1 <1>   0.0800 
 43 H       -1.9520     4.3420    -1.5510 H     1 <1>   0.0800 
 44 H       -0.4470     4.9620    -2.1760 H     1 <1>   0.0800 
 45 H       -1.2870     7.1310    -1.4980 H     1 <1>   0.0800 
 46 H       -1.2800     7.5530     0.1910 H     1 <1>   0.0800 
 47 H       -3.0490     5.1120     0.9710 H     1 <1>   0.4500 
 48 H       -4.7780     8.4420    -2.6950 H     1 <1>   0.0800 
 49 H       -3.0690     8.1610    -2.7320 H     1 <1>   0.0800 
 50 H       -4.5070     9.9970    -0.7960 H     1 <1>   0.0800 
 51 H       -3.4720    10.4880    -2.1290 H     1 <1>   0.0800 
 52 H       -4.7090     4.3630     2.5430 H     1 <1>   0.0800 
 53 H       -5.2280     3.1140     1.4220 H     1 <1>   0.0800 
 54 H       -6.3470     3.7710     2.5940 H     1 <1>   0.0800 
 55 H       -9.2360     7.5050    -0.9110 H     1 <1>   0.0800 
 56 H       -9.6460     6.3920     0.3670 H     1 <1>   0.0800 
 57 H       -9.4130     5.7970    -1.2630 H     1 <1>   0.0800 
 58 H       -3.0660    11.0960     0.7120 H     1 <1>   0.0800 
 59 H       -1.9900    11.5690    -0.6050 H     1 <1>   0.0800 
 60 H       -1.2490     9.7430     1.7110 H     1 <1>   0.0800 
 61 H       -0.7390    11.4010     1.5340 H     1 <1>   0.0800 
 62 H       -0.1760    10.2070     0.3950 H     1 <1>   0.0800 
@<TRIPOS>BOND
  1   1   2  1   
  2   2   3  ar  
  3   2   4  ar  
  4   3   5  1   
  5   3   6  ar  
  6   4   7  ar  
  7   4  33  1   
  8   5   8  1   
  9   5   9  1   
 10   6  10  ar  
 11   6  34  1   
 12   7  10  ar  
 13   7  35  1   
 14   8  11  1   
 15   8  36  1   
 16   8  37  1   
 17   9  12  1   
 18   9  38  1   
 19   9  39  1   
 20  10  40  1   
 21  11  13  1   
 22  11  41  1   
 23  11  42  1   
 24  12  13  1   
 25  12  43  1   
 26  12  44  1   
 27  13  14  1   
 28  14  15  1   
 29  14  45  1   
 30  14  46  1   
 31  15  16  ar  
 32  15  17  ar  
 33  16  18  1   
 34  16  47  1   
 35  17  19  1   
 36  17  20  1   
 37  18  19  2   
 38  18  21  1   
 39  19  22  1   
 40  20  23  1   
 41  20  48  1   
 42  20  49  1   
 43  21  24  am  
 44  21  25  1   
 45  22  26  2   
 46  22  27  am  
 47  23  28  1   
 48  23  50  1   
 49  23  51  1   
 50  24  27  am  
 51  24  29  2   
 52  25  52  1   
 53  25  53  1   
 54  25  54  1   
 55  27  30  1   
 56  28  31  1   
 57  30  55  1   
 58  30  56  1   
 59  30  57  1   
 60  31  32  1   
 61  31  58  1   
 62  31  59  1   
 63  32  60  1   
 64  32  61  1   
 65  32  62  1   
@<TRIPOS>SUBSTRUCTURE
  1 ****  13 GROUP 4 **** **** 0

# MOE 2024.06 (io_trps.svl 2023.06)
