@<TRIPOS>MOLECULE
N-[1-(5-Mercapto-4-methyl-4H-[1,2,4]triazol-3-yl)-ethyl]-2-methyl-benzamide
35 36 1 0 0 
SMALL
USER_CHARGES


@<TRIPOS>ATOM
  1 S       -0.9630     0.2970    -1.5500 S.3   1 <1>  -0.9360 
  2 C       -1.5170     1.7740    -1.1650 C.cat 1 <1>   0.7360 
  3 N       -1.0930     2.9000    -1.6900 N.pl3 1 <1>  -0.3930 
  4 N       -2.4560     2.0490    -0.2800 N.pl3 1 <1>  -0.7640 
  5 N       -1.7670     3.9630    -1.1590 N.2   1 <1>  -0.2600 
  6 C       -2.5880     3.4250    -0.3230 C.2   1 <1>   0.4850 
  7 C       -3.2490     1.0170     0.4190 C.3   1 <1>   0.2740 
  8 C       -3.5770     4.2080     0.5810 C.3   1 <1>   0.3880 
  9 N       -4.9880     3.7300     0.5080 N.am  1 <1>  -0.7300 
 10 C       -3.5850     5.7220     0.3360 C.3   1 <1>  -0.2400 
 11 C       -5.6920     3.5050    -0.6390 C.2   1 <1>   0.5440 
 12 O       -5.1520     3.7020    -1.7060 O.2   1 <1>  -0.5700 
 13 C       -7.0530     3.0110    -0.5720 C.ar  1 <1>   0.0860 
 14 C       -8.0890     3.6990     0.0770 C.ar  1 <1>  -0.1430 
 15 C       -7.3530     1.7870    -1.1680 C.ar  1 <1>  -0.1500 
 16 C       -9.3570     3.1430     0.1450 C.ar  1 <1>  -0.1500 
 17 C       -7.8670     5.0710     0.7040 C.3   1 <1>  -0.0970 
 18 C       -8.6200     1.2400    -1.1020 C.ar  1 <1>  -0.1500 
 19 C       -9.6250     1.9180    -0.4380 C.ar  1 <1>  -0.1500 
 20 H       -0.3810     2.9060    -2.4180 H     1 <1>   0.4500 
 21 H       -2.6470     0.1410     0.5920 H     1 <1>   0.0800 
 22 H       -4.0920     0.7420    -0.1910 H     1 <1>   0.0800 
 23 H       -3.5970     1.3890     1.3650 H     1 <1>   0.0800 
 24 H       -3.2390     4.0480     1.5890 H     1 <1>   0.0800 
 25 H       -5.4760     3.6380     1.3980 H     1 <1>   0.3700 
 26 H       -3.8940     5.9320    -0.6730 H     1 <1>   0.0800 
 27 H       -2.5970     6.1220     0.4770 H     1 <1>   0.0800 
 28 H       -4.2520     6.2110     1.0210 H     1 <1>   0.0800 
 29 H       -6.5740     1.2610    -1.6940 H     1 <1>   0.1500 
 30 H      -10.1540     3.6640     0.6480 H     1 <1>   0.1500 
 31 H       -7.4000     4.9700     1.6660 H     1 <1>   0.0800 
 32 H       -8.8020     5.5860     0.8320 H     1 <1>   0.0800 
 33 H       -7.2430     5.6770     0.0710 H     1 <1>   0.0800 
 34 H       -8.8260     0.2920    -1.5680 H     1 <1>   0.1500 
 35 H      -10.6140     1.4970    -0.3810 H     1 <1>   0.1500 
@<TRIPOS>BOND
  1   1   2  1   
  2   2   3  ar  
  3   2   4  ar  
  4   3   5  1   
  5   3  20  1   
  6   4   6  1   
  7   4   7  1   
  8   5   6  2   
  9   6   8  1   
 10   7  21  1   
 11   7  22  1   
 12   7  23  1   
 13   8   9  1   
 14   8  10  1   
 15   8  24  1   
 16   9  11  am  
 17   9  25  1   
 18  10  26  1   
 19  10  27  1   
 20  10  28  1   
 21  11  12  2   
 22  11  13  1   
 23  13  14  ar  
 24  13  15  ar  
 25  14  16  ar  
 26  14  17  1   
 27  15  18  ar  
 28  15  29  1   
 29  16  19  ar  
 30  16  30  1   
 31  17  31  1   
 32  17  32  1   
 33  17  33  1   
 34  18  19  ar  
 35  18  34  1   
 36  19  35  1   
@<TRIPOS>SUBSTRUCTURE
  1 ****  11 GROUP 4 **** **** 0

# MOE 2024.06 (io_trps.svl 2023.06)
