@<TRIPOS>MOLECULE
5-Amino-7-(4-chloro-phenyl)-2-methyl-3-oxo-2,3-dihydro-7H-thiazolo[3,2-a]pyridin
47 49 1 0 0 
SMALL
USER_CHARGES


@<TRIPOS>ATOM
  1 CL      -0.3470    -2.2830    -3.6280 Cl    1 <1>  -0.1770 
  2 C       -0.3120    -3.4680    -2.3480 C.ar  1 <1>   0.1770 
  3 C       -0.5200    -3.0650    -1.0440 C.ar  1 <1>  -0.1500 
  4 C       -0.0760    -4.7940    -2.6580 C.ar  1 <1>  -0.1500 
  5 C       -0.4920    -4.0080    -0.0310 C.ar  1 <1>  -0.1500 
  6 C       -0.0490    -5.7330    -1.6410 C.ar  1 <1>  -0.1500 
  7 C       -0.2600    -5.3480    -0.3210 C.ar  1 <1>  -0.1430 
  8 C       -0.2380    -6.3850     0.8060 C.3   1 <1>   0.3400 
  9 C        1.1750    -6.9640     0.9180 C.2   1 <1>  -0.1240 
 10 C       -1.3270    -7.4200     0.5390 C.2   1 <1>  -0.1240 
 11 C        1.4110    -8.2600     0.5310 C.2   1 <1>   0.2090 
 12 C        2.1240    -6.0380     1.4370 C.2   1 <1>   0.7060 
 13 C       -0.9250    -8.6650     0.1890 C.2   1 <1>   0.2100 
 14 C       -2.6700    -6.9320     0.6580 C.2   1 <1>   0.7060 
 15 N        0.3910    -9.1040     0.0620 N.am  1 <1>  -0.2780 
 16 N        2.6500    -8.8170     0.6070 N.pl3 1 <1>  -0.9000 
 17 O        1.8030    -4.9990     1.9980 O.2   1 <1>  -0.5700 
 18 O        3.4420    -6.2870     1.3260 O.3   1 <1>  -0.4300 
 19 S       -2.0310   -10.0040    -0.1850 S.3   1 <1>  -0.3310 
 20 O       -3.6460    -7.4880     0.1990 O.2   1 <1>  -0.5700 
 21 O       -2.8640    -5.7800     1.3110 O.3   1 <1>  -0.4300 
 22 C        0.5530   -10.3960    -0.4580 C.2   1 <1>   0.5690 
 23 C        4.4120    -5.3770     1.8110 C.3   1 <1>   0.0400 
 24 C       -0.7330   -11.1820    -0.6910 C.3   1 <1>   0.2110 
 25 C       -4.1430    -5.1980     1.4280 C.3   1 <1>   0.1200 
 26 O        1.6100   -10.9210    -0.7310 O.2   1 <1>  -0.5700 
 27 C       -1.0020   -11.5700    -2.1500 C.3   1 <1>  -0.2400 
 28 C       -3.9900    -3.8700     2.1620 C.3   1 <1>  -0.2400 
 29 H       -0.6980    -2.0270    -0.8270 H     1 <1>   0.1500 
 30 H        0.0850    -5.0820    -3.6810 H     1 <1>   0.1500 
 31 H       -0.6490    -3.6910     0.9870 H     1 <1>   0.1500 
 32 H        0.1380    -6.7640    -1.8890 H     1 <1>   0.1500 
 33 H       -0.4650    -5.9120     1.7460 H     1 <1>   0.0800 
 34 H        3.4900    -8.2630     0.8220 H     1 <1>   0.4000 
 35 H        2.8260    -9.7430     0.1820 H     1 <1>   0.4000 
 36 H        5.3890    -5.7780     1.6070 H     1 <1>   0.0800 
 37 H        4.2760    -5.2550     2.8720 H     1 <1>   0.0800 
 38 H        4.2870    -4.4330     1.3090 H     1 <1>   0.0800 
 39 H       -0.7860   -12.0290    -0.0320 H     1 <1>   0.0800 
 40 H       -4.7780    -5.8760     1.9750 H     1 <1>   0.0800 
 41 H       -4.5420    -5.0480     0.4380 H     1 <1>   0.0800 
 42 H       -0.9940   -10.6960    -2.7770 H     1 <1>   0.0800 
 43 H       -1.9580   -12.0550    -2.2340 H     1 <1>   0.0800 
 44 H       -0.2390   -12.2460    -2.4930 H     1 <1>   0.0800 
 45 H       -3.5770    -4.0320     3.1410 H     1 <1>   0.0800 
 46 H       -4.9530    -3.4050     2.2700 H     1 <1>   0.0800 
 47 H       -3.3520    -3.2090     1.6030 H     1 <1>   0.0800 
@<TRIPOS>BOND
  1   1   2  1   
  2   2   3  ar  
  3   2   4  ar  
  4   3   5  ar  
  5   3  29  1   
  6   4   6  ar  
  7   4  30  1   
  8   5   7  ar  
  9   5  31  1   
 10   6   7  ar  
 11   6  32  1   
 12   7   8  1   
 13   8   9  1   
 14   8  10  1   
 15   8  33  1   
 16   9  11  2   
 17   9  12  1   
 18  10  13  2   
 19  10  14  1   
 20  11  15  1   
 21  11  16  1   
 22  12  17  2   
 23  12  18  1   
 24  13  15  1   
 25  13  19  1   
 26  14  20  2   
 27  14  21  1   
 28  15  22  am  
 29  16  34  1   
 30  16  35  1   
 31  18  23  1   
 32  19  24  1   
 33  21  25  1   
 34  22  24  1   
 35  22  26  2   
 36  23  36  1   
 37  23  37  1   
 38  23  38  1   
 39  24  27  1   
 40  24  39  1   
 41  25  28  1   
 42  25  40  1   
 43  25  41  1   
 44  27  42  1   
 45  27  43  1   
 46  27  44  1   
 47  28  45  1   
 48  28  46  1   
 49  28  47  1   
@<TRIPOS>SUBSTRUCTURE
  1 ****   8 GROUP 4 **** **** 0

# MOE 2024.06 (io_trps.svl 2023.06)
