@<TRIPOS>MOLECULE
1-Cyclopropylmethyl-3-(4-hydroxy-8-methyl-quinolin-3-yl)-urea
37 39 1 0 0 
SMALL
USER_CHARGES


@<TRIPOS>ATOM
  1 O       -0.3510     0.0350    -0.2200 O.2   1 <1>  -0.5700 
  2 C       -0.1700     1.2370    -0.2150 C.2   1 <1>   0.6900 
  3 N        1.0720     1.7830    -0.1740 N.am  1 <1>  -0.5390 
  4 N       -1.2260     2.0810    -0.2530 N.am  1 <1>  -0.7300 
  5 C        2.3770     1.2150    -0.1360 C.2   1 <1>   0.1230 
  6 C       -2.6320     1.6510    -0.2790 C.3   1 <1>   0.2350 
  7 C        3.4760     2.1350    -0.0780 C.2   1 <1>   0.4690 
  8 C        2.6310    -0.1220    -0.1510 C.2   1 <1>  -0.0500 
  9 C       -3.4820     2.7830     0.2940 C.3   1 <1>  -0.1950 
 10 O        3.2570     3.3470    -0.0660 O.2   1 <1>  -0.5700 
 11 C        4.8220     1.6220    -0.0370 C.ar  1 <1>   0.0860 
 12 N        3.9230    -0.6050    -0.1120 N.pl3 1 <1>  -0.6000 
 13 C       -4.8860     2.9980    -0.1750 C.3   1 <1>  -0.2000 
 14 C       -3.8160     3.9950    -0.5180 C.3   1 <1>  -0.2000 
 15 C        5.0280     0.2310    -0.0550 C.ar  1 <1>   0.1000 
 16 C        5.9430     2.4570     0.0200 C.ar  1 <1>  -0.1500 
 17 C        6.3290    -0.2910    -0.0160 C.ar  1 <1>  -0.1430 
 18 C        7.2180     1.9400     0.0590 C.ar  1 <1>  -0.1500 
 19 C        7.4090     0.5650     0.0410 C.ar  1 <1>  -0.1500 
 20 C        6.5680    -1.7950    -0.0350 C.3   1 <1>  -0.0970 
 21 H        1.1030     2.8030    -0.1530 H     1 <1>   0.3700 
 22 H       -1.0840     3.0880    -0.2860 H     1 <1>   0.3700 
 23 H       -2.7580     0.7540     0.3040 H     1 <1>   0.0800 
 24 H       -2.9170     1.4430    -1.2970 H     1 <1>   0.0800 
 25 H        1.8420    -0.8540    -0.1940 H     1 <1>   0.1500 
 26 H       -3.3080     2.9180     1.3490 H     1 <1>   0.1000 
 27 H        4.0840    -1.6180    -0.1240 H     1 <1>   0.4000 
 28 H       -5.6360     3.2730     0.5470 H     1 <1>   0.1000 
 29 H       -5.2820     2.3800    -0.9620 H     1 <1>   0.1000 
 30 H       -3.4810     4.0550    -1.5390 H     1 <1>   0.1000 
 31 H       -3.8320     4.9560    -0.0330 H     1 <1>   0.1000 
 32 H        5.7970     3.5240     0.0350 H     1 <1>   0.1500 
 33 H        8.0710     2.5960     0.1030 H     1 <1>   0.1500 
 34 H        8.4140     0.1810     0.0710 H     1 <1>   0.1500 
 35 H        6.1630    -2.2210    -0.9350 H     1 <1>   0.0800 
 36 H        6.0980    -2.2530     0.8170 H     1 <1>   0.0800 
 37 H        7.6190    -2.0190     0.0010 H     1 <1>   0.0800 
@<TRIPOS>BOND
  1   1   2  2   
  2   2   3  am  
  3   2   4  am  
  4   3   5  1   
  5   3  21  1   
  6   4   6  1   
  7   4  22  1   
  8   5   7  1   
  9   5   8  2   
 10   6   9  1   
 11   6  23  1   
 12   6  24  1   
 13   7  10  2   
 14   7  11  1   
 15   8  12  1   
 16   8  25  1   
 17   9  13  1   
 18   9  14  1   
 19   9  26  1   
 20  11  15  ar  
 21  11  16  ar  
 22  12  15  1   
 23  12  27  1   
 24  13  14  1   
 25  13  28  1   
 26  13  29  1   
 27  14  30  1   
 28  14  31  1   
 29  15  17  ar  
 30  16  18  ar  
 31  16  32  1   
 32  17  19  ar  
 33  17  20  1   
 34  18  19  ar  
 35  18  33  1   
 36  19  34  1   
 37  20  35  1   
 38  20  36  1   
 39  20  37  1   
@<TRIPOS>SUBSTRUCTURE
  1 ****   5 GROUP 4 **** **** 0

# MOE 2024.06 (io_trps.svl 2023.06)
