@<TRIPOS>MOLECULE
[2-(2-Fluoro-phenyl)-ethyl]-(5,6,7,8-tetrahydro-[1,2,4]triazolo[5,1-b]quinazolin
42 45 1 0 0 
SMALL
USER_CHARGES


@<TRIPOS>ATOM
  1 F       -1.9870    -1.0760    -1.9270 F     1 <1>  -0.1900 
  2 C       -1.7190    -1.5300    -0.7310 C.ar  1 <1>   0.1900 
  3 C       -2.2880    -0.9120     0.3750 C.ar  1 <1>  -0.1440 
  4 C       -0.8760    -2.6200    -0.6250 C.ar  1 <1>  -0.1500 
  5 C       -1.9850    -1.4250     1.6280 C.ar  1 <1>  -0.1500 
  6 C       -3.2170     0.2860     0.2320 C.3   1 <1>  -0.0160 
  7 C       -0.5880    -3.1180     0.6340 C.ar  1 <1>  -0.1500 
  8 C       -1.1430    -2.5200     1.7550 C.ar  1 <1>  -0.1500 
  9 C       -4.6020    -0.1740    -0.2220 C.3   1 <1>   0.2090 
 10 N       -5.5310     0.9840    -0.2860 N.pl3 1 <1>  -0.8690 
 11 C       -6.8720     1.0560    -0.0480 C.2   1 <1>   0.4790 
 12 N       -7.3240     2.2860     0.3240 N.pl3 1 <1>  -0.3220 
 13 C       -7.8250     0.0500    -0.1390 C.2   1 <1>  -0.1240 
 14 N       -6.6560     3.4820     0.4730 N.2   1 <1>  -0.2600 
 15 C       -8.6140     2.4560     0.6300 C.cat 1 <1>   0.9620 
 16 C       -9.1500     0.3520     0.2120 C.2   1 <1>   0.3750 
 17 C       -7.4560    -1.3570    -0.6240 C.3   1 <1>  -0.0220 
 18 C       -7.5610     4.3060     0.8570 C.2   1 <1>   0.5030 
 19 N       -9.5570     1.5360     0.6010 N.2   1 <1>  -0.6120 
 20 N       -8.7800     3.7190     0.9690 N.pl3 1 <1>  -0.7000 
 21 C      -10.2580    -0.6940     0.1450 C.3   1 <1>  -0.0990 
 22 C       -8.6610    -2.1880    -1.0700 C.3   1 <1>  -0.1600 
 23 C       -9.7570    -2.1330    -0.0090 C.3   1 <1>  -0.1600 
 24 H       -0.4580    -3.0670    -1.5090 H     1 <1>   0.1500 
 25 H       -2.4000    -0.9800     2.5160 H     1 <1>   0.1500 
 26 H       -2.8070     0.9720    -0.4880 H     1 <1>   0.0800 
 27 H       -3.2990     0.7940     1.1770 H     1 <1>   0.0800 
 28 H        0.0670    -3.9660     0.7430 H     1 <1>   0.1500 
 29 H       -0.9160    -2.9080     2.7330 H     1 <1>   0.1500 
 30 H       -4.9700    -0.9040     0.4780 H     1 <1>   0.0800 
 31 H       -4.5270    -0.6300    -1.1950 H     1 <1>   0.0800 
 32 H       -5.0420     1.8850    -0.3420 H     1 <1>   0.4000 
 33 H       -6.9630    -1.8810     0.1750 H     1 <1>   0.0800 
 34 H       -6.7750    -1.2920    -1.4560 H     1 <1>   0.0800 
 35 H       -7.3900     5.3510     1.0730 H     1 <1>   0.1500 
 36 H       -9.6780     4.1100     1.2460 H     1 <1>   0.4500 
 37 H      -10.8880    -0.4540    -0.6930 H     1 <1>   0.0800 
 38 H      -10.8650    -0.6310     1.0320 H     1 <1>   0.0800 
 39 H       -8.3560    -3.2090    -1.2260 H     1 <1>   0.0800 
 40 H       -9.0410    -1.8120    -2.0060 H     1 <1>   0.0800 
 41 H      -10.5760    -2.7730    -0.2900 H     1 <1>   0.0800 
 42 H       -9.3690    -2.4880     0.9320 H     1 <1>   0.0800 
@<TRIPOS>BOND
  1   1   2  1   
  2   2   3  ar  
  3   2   4  ar  
  4   3   5  ar  
  5   3   6  1   
  6   4   7  ar  
  7   4  24  1   
  8   5   8  ar  
  9   5  25  1   
 10   6   9  1   
 11   6  26  1   
 12   6  27  1   
 13   7   8  ar  
 14   7  28  1   
 15   8  29  1   
 16   9  10  1   
 17   9  30  1   
 18   9  31  1   
 19  10  11  1   
 20  10  32  1   
 21  11  12  1   
 22  11  13  2   
 23  12  14  1   
 24  12  15  ar  
 25  13  16  1   
 26  13  17  1   
 27  14  18  2   
 28  15  19  1   
 29  15  20  ar  
 30  16  19  2   
 31  16  21  1   
 32  17  22  1   
 33  17  33  1   
 34  17  34  1   
 35  18  20  1   
 36  18  35  1   
 37  20  36  1   
 38  21  23  1   
 39  21  37  1   
 40  21  38  1   
 41  22  23  1   
 42  22  39  1   
 43  22  40  1   
 44  23  41  1   
 45  23  42  1   
@<TRIPOS>SUBSTRUCTURE
  1 ****  10 GROUP 4 **** **** 0

# MOE 2024.06 (io_trps.svl 2023.06)
