@<TRIPOS>MOLECULE
N-(3-Cyano-5,6-dihydro-4H-cyclopenta[b]thiophen-2-yl)-3,5-dimethyl-benzamide
37 39 1 0 0 
SMALL
USER_CHARGES


@<TRIPOS>ATOM
  1 S       -0.1410     0.1110    -0.8910 S.3   1 <1>  -0.0800 
  2 C        0.8790     1.1990     0.0740 C.2   1 <1>   0.1040 
  3 C       -1.5580     1.0520    -0.4950 C.2   1 <1>  -0.1400 
  4 N        2.2590     0.9790     0.1560 N.am  1 <1>  -0.4940 
  5 C        0.1220     2.1940     0.6220 C.2   1 <1>   0.0190 
  6 C       -1.2650     2.0800     0.2830 C.2   1 <1>  -0.1810 
  7 C       -2.9920     0.8800    -0.8810 C.3   1 <1>   0.0200 
  8 C        3.0370    -0.1180    -0.1460 C.2   1 <1>   0.5440 
  9 C        0.6190     3.2520     1.4420 C.1   1 <1>   0.5380 
 10 C       -2.5100     2.8680     0.6040 C.3   1 <1>   0.0210 
 11 C       -3.6290     2.0910    -0.1510 C.3   1 <1>  -0.1600 
 12 O        2.5250    -1.2020    -0.3330 O.2   1 <1>  -0.5700 
 13 C        4.4800     0.0320    -0.1830 C.ar  1 <1>   0.0860 
 14 N        1.0530     4.0920     2.0820 N.1   1 <1>  -0.5570 
 15 C        5.3160    -1.0140     0.2060 C.ar  1 <1>  -0.1500 
 16 C        5.0880     1.2190    -0.5990 C.ar  1 <1>  -0.1500 
 17 C        6.6940    -0.8850     0.2010 C.ar  1 <1>  -0.1430 
 18 C        6.4640     1.3650    -0.6060 C.ar  1 <1>  -0.1430 
 19 C        7.2630     0.3100    -0.2030 C.ar  1 <1>  -0.1500 
 20 C        7.5820    -2.0390     0.6320 C.3   1 <1>  -0.0970 
 21 C        7.1100     2.6640    -1.0570 C.3   1 <1>  -0.0970 
 22 H        2.7970     1.7440     0.5630 H     1 <1>   0.3700 
 23 H       -3.3750    -0.0560    -0.5160 H     1 <1>   0.0800 
 24 H       -3.1100     0.9470    -1.9490 H     1 <1>   0.0800 
 25 H       -2.4250     3.8770     0.2410 H     1 <1>   0.0800 
 26 H       -2.6900     2.8740     1.6650 H     1 <1>   0.0800 
 27 H       -4.3710     1.7470     0.5480 H     1 <1>   0.0800 
 28 H       -4.1060     2.7390    -0.8650 H     1 <1>   0.0800 
 29 H        4.8650    -1.9410     0.5170 H     1 <1>   0.1500 
 30 H        4.4750     2.0370    -0.9320 H     1 <1>   0.1500 
 31 H        8.3340     0.4170    -0.2070 H     1 <1>   0.1500 
 32 H        7.0180    -2.9520     0.7020 H     1 <1>   0.0800 
 33 H        8.0150    -1.8260     1.5930 H     1 <1>   0.0800 
 34 H        8.3720    -2.1820    -0.0820 H     1 <1>   0.0800 
 35 H        6.3700     3.4210    -1.2430 H     1 <1>   0.0800 
 36 H        7.6660     2.4980    -1.9620 H     1 <1>   0.0800 
 37 H        7.7810     3.0220    -0.2970 H     1 <1>   0.0800 
@<TRIPOS>BOND
  1   1   2  1   
  2   1   3  1   
  3   2   4  1   
  4   2   5  2   
  5   3   6  2   
  6   3   7  1   
  7   4   8  am  
  8   4  22  1   
  9   5   6  1   
 10   5   9  1   
 11   6  10  1   
 12   7  11  1   
 13   7  23  1   
 14   7  24  1   
 15   8  12  2   
 16   8  13  1   
 17   9  14  3   
 18  10  11  1   
 19  10  25  1   
 20  10  26  1   
 21  11  27  1   
 22  11  28  1   
 23  13  15  ar  
 24  13  16  ar  
 25  15  17  ar  
 26  15  29  1   
 27  16  18  ar  
 28  16  30  1   
 29  17  19  ar  
 30  17  20  1   
 31  18  19  ar  
 32  18  21  1   
 33  19  31  1   
 34  20  32  1   
 35  20  33  1   
 36  20  34  1   
 37  21  35  1   
 38  21  36  1   
 39  21  37  1   
@<TRIPOS>SUBSTRUCTURE
  1 ****   4 GROUP 4 **** **** 0

# MOE 2024.06 (io_trps.svl 2023.06)
