@<TRIPOS>MOLECULE
(4-Dimethylamino-6-morpholin-4-yl-[1,3,5]triazin-2-yl)-isopropyl-cyanamide
42 43 1 0 0 
SMALL
USER_CHARGES


@<TRIPOS>ATOM
  1 O       -1.0510    -0.0230     0.2910 O.3   1 <1>  -0.5600 
  2 C       -2.2740    -0.4710    -0.2310 C.3   1 <1>   0.1200 
  3 C       -1.1330     1.2220     0.9310 C.3   1 <1>   0.1200 
  4 C       -2.8240     0.5220    -1.2690 C.3   1 <1>   0.2090 
  5 C       -1.6340     2.3140    -0.0340 C.3   1 <1>   0.2090 
  6 N       -2.9150     1.8920    -0.6770 N.pl3 1 <1>  -0.8380 
  7 C       -4.1130     2.4910    -0.3650 C.ar  1 <1>   0.7200 
  8 N       -4.0820     3.7700    -0.1120 N.ar  1 <1>  -0.6200 
  9 N       -5.1780     1.7380    -0.3410 N.ar  1 <1>  -0.6200 
 10 C       -5.2450     4.2900     0.1750 C.ar  1 <1>   0.8190 
 11 C       -6.2810     2.3650    -0.0330 C.ar  1 <1>   0.7200 
 12 N       -6.3750     3.6400     0.2310 N.ar  1 <1>  -0.6200 
 13 N       -5.2810     5.6380     0.4420 N.pl3 1 <1>  -0.6810 
 14 N       -7.4440     1.6230     0.0200 N.pl3 1 <1>  -0.8380 
 15 C       -6.2080     6.1370     1.3740 C.1   1 <1>   0.6830 
 16 C       -4.2920     6.5760    -0.1430 C.3   1 <1>   0.2760 
 17 C       -7.4430     0.1320     0.0280 C.3   1 <1>   0.1290 
 18 C       -8.7880     2.2600     0.1390 C.3   1 <1>   0.1290 
 19 N       -6.9330     6.5800     2.1310 N.1   1 <1>  -0.5570 
 20 C       -3.3070     7.0320     0.9340 C.3   1 <1>  -0.2400 
 21 C       -4.9990     7.7670    -0.7940 C.3   1 <1>  -0.2400 
 22 H       -2.9740    -0.5900     0.5780 H     1 <1>   0.0800 
 23 H       -2.1050    -1.4300    -0.6880 H     1 <1>   0.0800 
 24 H       -0.1520     1.4700     1.2940 H     1 <1>   0.0800 
 25 H       -1.8010     1.1330     1.7700 H     1 <1>   0.0800 
 26 H       -3.7820     0.1840    -1.6230 H     1 <1>   0.0800 
 27 H       -2.1590     0.5480    -2.1150 H     1 <1>   0.0800 
 28 H       -0.8930     2.4810    -0.7960 H     1 <1>   0.0800 
 29 H       -1.7560     3.2320     0.5120 H     1 <1>   0.0800 
 30 H       -3.7370     6.0730    -0.9180 H     1 <1>   0.0800 
 31 H       -6.5120    -0.2480     0.4120 H     1 <1>   0.0800 
 32 H       -7.5830    -0.2320    -0.9750 H     1 <1>   0.0800 
 33 H       -8.2390    -0.2340     0.6530 H     1 <1>   0.0800 
 34 H       -8.7970     3.2200    -0.3490 H     1 <1>   0.0800 
 35 H       -9.0320     2.3960     1.1790 H     1 <1>   0.0800 
 36 H       -9.5360     1.6400    -0.3230 H     1 <1>   0.0800 
 37 H       -3.8060     7.5940     1.7030 H     1 <1>   0.0800 
 38 H       -2.5510     7.6570     0.4940 H     1 <1>   0.0800 
 39 H       -2.8250     6.1770     1.3730 H     1 <1>   0.0800 
 40 H       -5.4990     8.3760    -0.0620 H     1 <1>   0.0800 
 41 H       -5.7140     7.4190    -1.5180 H     1 <1>   0.0800 
 42 H       -4.2780     8.3810    -1.3020 H     1 <1>   0.0800 
@<TRIPOS>BOND
  1   1   2  1   
  2   1   3  1   
  3   2   4  1   
  4   2  22  1   
  5   2  23  1   
  6   3   5  1   
  7   3  24  1   
  8   3  25  1   
  9   4   6  1   
 10   4  26  1   
 11   4  27  1   
 12   5   6  1   
 13   5  28  1   
 14   5  29  1   
 15   6   7  1   
 16   7   8  ar  
 17   7   9  ar  
 18   8  10  ar  
 19   9  11  ar  
 20  10  12  ar  
 21  10  13  1   
 22  11  12  ar  
 23  11  14  1   
 24  13  15  1   
 25  13  16  1   
 26  14  17  1   
 27  14  18  1   
 28  15  19  3   
 29  16  20  1   
 30  16  21  1   
 31  16  30  1   
 32  17  31  1   
 33  17  32  1   
 34  17  33  1   
 35  18  34  1   
 36  18  35  1   
 37  18  36  1   
 38  20  37  1   
 39  20  38  1   
 40  20  39  1   
 41  21  40  1   
 42  21  41  1   
 43  21  42  1   
@<TRIPOS>SUBSTRUCTURE
  1 ****   8 GROUP 4 **** **** 0

# MOE 2024.06 (io_trps.svl 2023.06)
