@<TRIPOS>MOLECULE
1-(2,4-Dichloro-benzoyl)-piperidine-4-carboxylic acid butyl-methyl-amide
48 49 1 0 0 
SMALL
USER_CHARGES


@<TRIPOS>ATOM
  1 CL       3.4640     0.8330     2.3570 Cl    1 <1>  -0.1770 
  2 C        3.0180    -0.3850     1.1890 C.ar  1 <1>   0.1770 
  3 C        2.7600    -0.0290    -0.1350 C.ar  1 <1>   0.0860 
  4 C        2.9320    -1.6920     1.6290 C.ar  1 <1>  -0.1500 
  5 C        2.8610     1.3370    -0.5940 C.2   1 <1>   0.5440 
  6 C        2.3890    -1.0480    -1.0160 C.ar  1 <1>  -0.1500 
  7 C        2.5720    -2.6730     0.7270 C.ar  1 <1>   0.1770 
  8 O        1.8370     1.9310    -0.8700 O.2   1 <1>  -0.5700 
  9 N        4.0780     1.9640    -0.7700 N.am  1 <1>  -0.6600 
 10 C        2.2970    -2.3630    -0.5930 C.ar  1 <1>  -0.1500 
 11 CL       2.4610    -4.3280     1.2600 Cl    1 <1>  -0.1770 
 12 C        4.1630     3.4240    -1.0540 C.3   1 <1>   0.1400 
 13 C        5.3870     1.2530    -0.7540 C.3   1 <1>   0.1400 
 14 C        5.1110     4.0920    -0.0550 C.3   1 <1>  -0.1600 
 15 C        6.3430     1.9250     0.2360 C.3   1 <1>  -0.1600 
 16 C        6.5050     3.4290    -0.0570 C.3   1 <1>  -0.0190 
 17 C        7.4830     4.0920     0.9270 C.2   1 <1>   0.5690 
 18 O        7.0150     4.6680     1.8830 O.2   1 <1>  -0.5700 
 19 N        8.8490     4.0380     0.7390 N.am  1 <1>  -0.6600 
 20 C        9.5580     3.2370    -0.2990 C.3   1 <1>   0.1400 
 21 C        9.7550     4.7990     1.6500 C.3   1 <1>   0.0600 
 22 C       10.2580     2.0350     0.3440 C.3   1 <1>  -0.1600 
 23 C       10.8410     1.0980    -0.7210 C.3   1 <1>  -0.1600 
 24 C       11.5240    -0.1100    -0.0730 C.3   1 <1>  -0.2400 
 25 H        3.1390    -1.9410     2.6540 H     1 <1>   0.1500 
 26 H        2.1690    -0.7930    -2.0390 H     1 <1>   0.1500 
 27 H        2.0110    -3.1450    -1.2750 H     1 <1>   0.1500 
 28 H        3.1920     3.8840    -0.9780 H     1 <1>   0.0800 
 29 H        4.5200     3.5670    -2.0590 H     1 <1>   0.0800 
 30 H        5.8090     1.2890    -1.7440 H     1 <1>   0.0800 
 31 H        5.2640     0.2200    -0.4850 H     1 <1>   0.0800 
 32 H        4.6740     4.0290     0.9270 H     1 <1>   0.0800 
 33 H        5.2080     5.1350    -0.3000 H     1 <1>   0.0800 
 34 H        7.2970     1.4350     0.1820 H     1 <1>   0.0800 
 35 H        5.9690     1.7940     1.2360 H     1 <1>   0.0800 
 36 H        6.8940     3.5550    -1.0480 H     1 <1>   0.0800 
 37 H       10.2830     3.8600    -0.7950 H     1 <1>   0.0800 
 38 H        8.8740     2.8840    -1.0470 H     1 <1>   0.0800 
 39 H        9.2270     5.6100     2.1210 H     1 <1>   0.0800 
 40 H       10.5800     5.2100     1.0960 H     1 <1>   0.0800 
 41 H       10.1310     4.1440     2.4160 H     1 <1>   0.0800 
 42 H        9.5520     1.4930     0.9480 H     1 <1>   0.0800 
 43 H       11.0530     2.3820     0.9810 H     1 <1>   0.0800 
 44 H       11.5600     1.6310    -1.3200 H     1 <1>   0.0800 
 45 H       10.0560     0.7500    -1.3700 H     1 <1>   0.0800 
 46 H       12.3300     0.2100     0.5640 H     1 <1>   0.0800 
 47 H       11.9270    -0.7570    -0.8330 H     1 <1>   0.0800 
 48 H       10.8200    -0.6720     0.5150 H     1 <1>   0.0800 
@<TRIPOS>BOND
  1   1   2  1   
  2   2   3  ar  
  3   2   4  ar  
  4   3   5  1   
  5   3   6  ar  
  6   4   7  ar  
  7   4  25  1   
  8   5   8  2   
  9   5   9  am  
 10   6  10  ar  
 11   6  26  1   
 12   7  10  ar  
 13   7  11  1   
 14   9  12  1   
 15   9  13  1   
 16  10  27  1   
 17  12  14  1   
 18  12  28  1   
 19  12  29  1   
 20  13  15  1   
 21  13  30  1   
 22  13  31  1   
 23  14  16  1   
 24  14  32  1   
 25  14  33  1   
 26  15  16  1   
 27  15  34  1   
 28  15  35  1   
 29  16  17  1   
 30  16  36  1   
 31  17  18  2   
 32  17  19  am  
 33  19  20  1   
 34  19  21  1   
 35  20  22  1   
 36  20  37  1   
 37  20  38  1   
 38  21  39  1   
 39  21  40  1   
 40  21  41  1   
 41  22  23  1   
 42  22  42  1   
 43  22  43  1   
 44  23  24  1   
 45  23  44  1   
 46  23  45  1   
 47  24  46  1   
 48  24  47  1   
 49  24  48  1   
@<TRIPOS>SUBSTRUCTURE
  1 ****  15 GROUP 4 **** **** 0

# MOE 2024.06 (io_trps.svl 2023.06)
