@<TRIPOS>MOLECULE
N-Adamantan-1-yl-2-(3-cyano-4,6-dimethyl-2-oxo-2H-pyridin-1-yl)-acetamide
50 53 1 0 0 
SMALL
USER_CHARGES


@<TRIPOS>ATOM
  1 O        1.0250    -0.1840     0.6640 O.2   1 <1>  -0.5700 
  2 C        1.1050    -1.4000     0.5170 C.2   1 <1>   0.6160 
  3 N        2.2760    -1.9390    -0.0050 N.am  1 <1>  -0.4690 
  4 C        0.0200    -2.2690     0.8510 C.2   1 <1>   0.0790 
  5 C        2.3870    -3.3080    -0.1910 C.2   1 <1>  -0.0290 
  6 C        3.4260    -0.9950    -0.2570 C.3   1 <1>   0.2010 
  7 C       -1.1540    -1.6520     1.3870 C.1   1 <1>   0.4920 
  8 C        0.1390    -3.6200     0.6510 C.2   1 <1>  -0.1380 
  9 C        1.3470    -4.1270     0.1220 C.2   1 <1>  -0.1500 
 10 C        3.6800    -3.9010    -0.7350 C.3   1 <1>  -0.1020 
 11 C        4.2620    -0.7060     0.9970 C.2   1 <1>   0.5690 
 12 N       -2.1230    -1.2270     1.8140 N.1   1 <1>  -0.5570 
 13 C       -0.9480    -4.6450     0.9630 C.3   1 <1>  -0.1020 
 14 O        4.5930    -1.6320     1.6970 O.2   1 <1>  -0.5700 
 15 N        4.6960     0.5300     1.3520 N.am  1 <1>  -0.7300 
 16 C        4.6520     1.8660     0.7310 C.3   1 <1>   0.3000 
 17 C        5.5390     2.7820     1.5980 C.3   1 <1>  -0.1600 
 18 C        3.2210     2.4350     0.7280 C.3   1 <1>  -0.1600 
 19 C        5.2260     1.8470    -0.7000 C.3   1 <1>  -0.1600 
 20 C        5.5560     4.2150     1.0320 C.3   1 <1>  -0.0800 
 21 C        3.2220     3.8610     0.1430 C.3   1 <1>  -0.0800 
 22 C        5.2270     3.2730    -1.2850 C.3   1 <1>  -0.0800 
 23 C        4.1180     4.7640     1.0110 C.3   1 <1>  -0.1600 
 24 C        6.1070     4.1810    -0.4060 C.3   1 <1>  -0.1600 
 25 C        3.7850     3.8200    -1.2920 C.3   1 <1>  -0.1600 
 26 H        3.0370    -0.0820    -0.6550 H     1 <1>   0.0800 
 27 H        4.0790    -1.3970    -1.0050 H     1 <1>   0.0800 
 28 H        1.4250    -5.1910    -0.0190 H     1 <1>   0.1500 
 29 H        4.5040    -3.6470    -0.0920 H     1 <1>   0.0800 
 30 H        3.8730    -3.5340    -1.7260 H     1 <1>   0.0800 
 31 H        3.6180    -4.9730    -0.7830 H     1 <1>   0.0800 
 32 H       -0.5850    -5.3490     1.6910 H     1 <1>   0.0800 
 33 H       -1.2090    -5.1830     0.0690 H     1 <1>   0.0800 
 34 H       -1.8430    -4.1950     1.3540 H     1 <1>   0.0800 
 35 H        5.1930     0.5340     2.2420 H     1 <1>   0.3700 
 36 H        6.5440     2.4010     1.6230 H     1 <1>   0.0800 
 37 H        5.1620     2.8080     2.6050 H     1 <1>   0.0800 
 38 H        2.8310     2.4540     1.7310 H     1 <1>   0.0800 
 39 H        2.5680     1.8280     0.1350 H     1 <1>   0.0800 
 40 H        4.6380     1.2220    -1.3420 H     1 <1>   0.0800 
 41 H        6.2310     1.4640    -0.6840 H     1 <1>   0.0800 
 42 H        6.1780     4.8440     1.6460 H     1 <1>   0.0800 
 43 H        2.2170     4.2480     0.1300 H     1 <1>   0.0800 
 44 H        5.6140     3.2550    -2.2900 H     1 <1>   0.0800 
 45 H        4.1150     5.7660     0.6170 H     1 <1>   0.0800 
 46 H        3.7280     4.8080     2.0130 H     1 <1>   0.0800 
 47 H        7.1190     3.8160    -0.4010 H     1 <1>   0.0800 
 48 H        6.1230     5.1770    -0.8130 H     1 <1>   0.0800 
 49 H        3.1600     3.1990    -1.9100 H     1 <1>   0.0800 
 50 H        3.7750     4.8100    -1.7130 H     1 <1>   0.0800 
@<TRIPOS>BOND
  1   1   2  2   
  2   2   3  am  
  3   2   4  1   
  4   3   5  1   
  5   3   6  1   
  6   4   7  1   
  7   4   8  2   
  8   5   9  2   
  9   5  10  1   
 10   6  11  1   
 11   6  26  1   
 12   6  27  1   
 13   7  12  3   
 14   8   9  1   
 15   8  13  1   
 16   9  28  1   
 17  10  29  1   
 18  10  30  1   
 19  10  31  1   
 20  11  14  2   
 21  11  15  am  
 22  13  32  1   
 23  13  33  1   
 24  13  34  1   
 25  15  16  1   
 26  15  35  1   
 27  16  17  1   
 28  16  18  1   
 29  16  19  1   
 30  17  20  1   
 31  17  36  1   
 32  17  37  1   
 33  18  21  1   
 34  18  38  1   
 35  18  39  1   
 36  19  22  1   
 37  19  40  1   
 38  19  41  1   
 39  20  23  1   
 40  20  24  1   
 41  20  42  1   
 42  21  23  1   
 43  21  25  1   
 44  21  43  1   
 45  22  24  1   
 46  22  25  1   
 47  22  44  1   
 48  23  45  1   
 49  23  46  1   
 50  24  47  1   
 51  24  48  1   
 52  25  49  1   
 53  25  50  1   
@<TRIPOS>SUBSTRUCTURE
  1 ****   6 GROUP 4 **** **** 0

# MOE 2024.06 (io_trps.svl 2023.06)
