@<TRIPOS>MOLECULE
N-[3-(2-Chloro-phenyl)-[1,2,4]oxadiazol-5-ylmethyl]-isobutyramide
33 34 1 0 0 
SMALL
USER_CHARGES


@<TRIPOS>ATOM
  1 CL       1.0940     1.1900    -0.1230 Cl    1 <1>  -0.1770 
  2 C        0.7500    -0.5210    -0.0150 C.ar  1 <1>   0.1770 
  3 C        1.7810    -1.4600     0.0550 C.ar  1 <1>   0.0540 
  4 C       -0.5820    -0.8920     0.0170 C.ar  1 <1>  -0.1500 
  5 C        3.1810    -1.1020     0.0090 C.2   1 <1>   0.4620 
  6 C        1.4080    -2.7990     0.1810 C.ar  1 <1>  -0.1500 
  7 C       -0.9220    -2.2270     0.1310 C.ar  1 <1>  -0.1500 
  8 N        4.0810    -1.5330     0.8190 N.2   1 <1>  -0.4100 
  9 N        3.6970    -0.2970    -0.9220 N.2   1 <1>  -0.5650 
 10 C        0.0780    -3.1810     0.2160 C.ar  1 <1>  -0.1500 
 11 O        5.2150    -1.0130     0.4660 O.3   1 <1>  -0.0190 
 12 C        4.9180    -0.2810    -0.5760 C.2   1 <1>   0.2980 
 13 C        6.0260     0.5060    -1.2640 C.3   1 <1>   0.3200 
 14 N        6.7450     1.4170    -0.3350 N.am  1 <1>  -0.7300 
 15 C        6.2760     2.4760     0.3670 C.2   1 <1>   0.5690 
 16 O        7.0340     3.0440     1.1110 O.2   1 <1>  -0.5700 
 17 C        4.8230     2.9640     0.2530 C.3   1 <1>  -0.0190 
 18 C        4.7470     4.4800     0.0050 C.3   1 <1>  -0.2400 
 19 C        4.0230     2.6030     1.5150 C.3   1 <1>  -0.2400 
 20 H       -1.3460    -0.1370    -0.0440 H     1 <1>   0.1500 
 21 H        2.1760    -3.5520     0.2490 H     1 <1>   0.1500 
 22 H       -1.9570    -2.5240     0.1570 H     1 <1>   0.1500 
 23 H       -0.1810    -4.2220     0.3110 H     1 <1>   0.1500 
 24 H        5.6000     1.0830    -2.0660 H     1 <1>   0.0800 
 25 H        6.7280    -0.1880    -1.6890 H     1 <1>   0.0800 
 26 H        7.7130     1.1690    -0.1220 H     1 <1>   0.3700 
 27 H        4.3500     2.4860    -0.5840 H     1 <1>   0.0800 
 28 H        5.1760     5.0160     0.8340 H     1 <1>   0.0800 
 29 H        3.7250     4.7910    -0.1180 H     1 <1>   0.0800 
 30 H        5.2940     4.7360    -0.8850 H     1 <1>   0.0800 
 31 H        4.4570     3.0750     2.3790 H     1 <1>   0.0800 
 32 H        4.0300     1.5380     1.6690 H     1 <1>   0.0800 
 33 H        3.0020     2.9270     1.4200 H     1 <1>   0.0800 
@<TRIPOS>BOND
  1   1   2  1   
  2   2   3  ar  
  3   2   4  ar  
  4   3   5  1   
  5   3   6  ar  
  6   4   7  ar  
  7   4  20  1   
  8   5   8  2   
  9   5   9  1   
 10   6  10  ar  
 11   6  21  1   
 12   7  10  ar  
 13   7  22  1   
 14   8  11  1   
 15   9  12  2   
 16  10  23  1   
 17  11  12  1   
 18  12  13  1   
 19  13  14  1   
 20  13  24  1   
 21  13  25  1   
 22  14  15  am  
 23  14  26  1   
 24  15  16  2   
 25  15  17  1   
 26  17  18  1   
 27  17  19  1   
 28  17  27  1   
 29  18  28  1   
 30  18  29  1   
 31  18  30  1   
 32  19  31  1   
 33  19  32  1   
 34  19  33  1   
@<TRIPOS>SUBSTRUCTURE
  1 ****   9 GROUP 4 **** **** 0

# MOE 2024.06 (io_trps.svl 2023.06)
