@<TRIPOS>MOLECULE
Morpholin-4-yl-[4-(thiophene-2-carbonyl)-piperazin-1-yl]-methanone
40 42 1 0 0 
SMALL
USER_CHARGES


@<TRIPOS>ATOM
  1 S       -0.4440     1.2340     1.5810 S.3   1 <1>  -0.0800 
  2 C       -0.4310     1.5990    -0.1520 C.2   1 <1>  -0.0450 
  3 C       -1.7060     0.0360     1.3960 C.2   1 <1>  -0.1100 
  4 C        0.4540     2.6090    -0.6800 C.2   1 <1>   0.7150 
  5 C       -1.3680     0.8250    -0.7580 C.2   1 <1>  -0.1500 
  6 C       -2.0790    -0.0570     0.1070 C.2   1 <1>  -0.1500 
  7 O        0.0990     3.2540    -1.6510 O.2   1 <1>  -0.5700 
  8 N        1.7000     2.8680    -0.1480 N.am  1 <1>  -0.6600 
  9 C        2.5780     1.7980     0.4230 C.3   1 <1>   0.1400 
 10 C        2.4060     4.1580    -0.4190 C.3   1 <1>   0.1400 
 11 C        3.8480     1.5990    -0.4220 C.3   1 <1>   0.1400 
 12 C        3.6480     3.9310    -1.2920 C.3   1 <1>   0.1400 
 13 N        4.5330     2.8990    -0.6760 N.am  1 <1>  -0.6600 
 14 C        5.9000     2.9940    -0.6670 C.2   1 <1>   0.6900 
 15 O        6.5780     1.9830    -0.7170 O.2   1 <1>  -0.5700 
 16 N        6.5130     4.2160    -0.5810 N.am  1 <1>  -0.6600 
 17 C        6.1400     5.1730     0.4990 C.3   1 <1>   0.1400 
 18 C        7.9190     4.3860    -1.0480 C.3   1 <1>   0.1400 
 19 C        7.2090     5.1840     1.6050 C.3   1 <1>   0.1200 
 20 C        8.8840     4.4360     0.1480 C.3   1 <1>   0.1200 
 21 O        8.4780     5.4150     1.0650 O.3   1 <1>  -0.5600 
 22 H       -2.0410    -0.4780     2.2790 H     1 <1>   0.1500 
 23 H       -1.5830     0.8600    -1.8130 H     1 <1>   0.1500 
 24 H       -2.8390    -0.7170    -0.2760 H     1 <1>   0.1500 
 25 H        2.0540     0.8600     0.4670 H     1 <1>   0.0800 
 26 H        2.8590     2.0700     1.4260 H     1 <1>   0.0800 
 27 H        2.7050     4.5980     0.5160 H     1 <1>   0.0800 
 28 H        1.7480     4.8540    -0.9110 H     1 <1>   0.0800 
 29 H        3.5860     1.1510    -1.3650 H     1 <1>   0.0800 
 30 H        4.5120     0.9250     0.0910 H     1 <1>   0.0800 
 31 H        4.1760     4.8580    -1.4230 H     1 <1>   0.0800 
 32 H        3.3360     3.5920    -2.2640 H     1 <1>   0.0800 
 33 H        5.1940     4.8980     0.9300 H     1 <1>   0.0800 
 34 H        6.0470     6.1610     0.0830 H     1 <1>   0.0800 
 35 H        7.9990     5.3020    -1.6070 H     1 <1>   0.0800 
 36 H        8.1960     3.5760    -1.7000 H     1 <1>   0.0800 
 37 H        7.2220     4.2420     2.1260 H     1 <1>   0.0800 
 38 H        7.0060     5.9680     2.3120 H     1 <1>   0.0800 
 39 H        9.8750     4.6840    -0.1840 H     1 <1>   0.0800 
 40 H        8.9130     3.4820     0.6460 H     1 <1>   0.0800 
@<TRIPOS>BOND
  1   1   2  1   
  2   1   3  1   
  3   2   4  1   
  4   2   5  2   
  5   3   6  2   
  6   3  22  1   
  7   4   7  2   
  8   4   8  am  
  9   5   6  1   
 10   5  23  1   
 11   6  24  1   
 12   8   9  1   
 13   8  10  1   
 14   9  11  1   
 15   9  25  1   
 16   9  26  1   
 17  10  12  1   
 18  10  27  1   
 19  10  28  1   
 20  11  13  1   
 21  11  29  1   
 22  11  30  1   
 23  12  13  1   
 24  12  31  1   
 25  12  32  1   
 26  13  14  am  
 27  14  15  2   
 28  14  16  am  
 29  16  17  1   
 30  16  18  1   
 31  17  19  1   
 32  17  33  1   
 33  17  34  1   
 34  18  20  1   
 35  18  35  1   
 36  18  36  1   
 37  19  21  1   
 38  19  37  1   
 39  19  38  1   
 40  20  21  1   
 41  20  39  1   
 42  20  40  1   
@<TRIPOS>SUBSTRUCTURE
  1 ****  13 GROUP 4 **** **** 0

# MOE 2024.06 (io_trps.svl 2023.06)
