@<TRIPOS>MOLECULE
1-(4-Ethoxy-3-methyl-benzenesulfonyl)-2-ethyl-1H-imidazole
38 39 1 0 0 
SMALL
USER_CHARGES


@<TRIPOS>ATOM
  1 S       -0.7650    -0.1490    -2.2480 S.o2  1 <1>   1.2950 
  2 O       -1.0310    -1.3850    -2.9550 O.2   1 <1>  -0.6500 
  3 O       -0.8990     1.1090    -2.9570 O.2   1 <1>  -0.6500 
  4 N       -1.7640    -0.1040    -0.7890 N.pl3 1 <1>   0.3170 
  5 C        0.8950    -0.2400    -1.5300 C.ar  1 <1>  -0.0090 
  6 C       -1.8570     0.8830     0.1490 C.2   1 <1>   0.0060 
  7 C       -2.5170    -1.1080    -0.2750 C.2   1 <1>  -0.3020 
  8 C        1.2380    -1.2600    -0.6490 C.ar  1 <1>  -0.1500 
  9 C        1.8630     0.7100    -1.8330 C.ar  1 <1>  -0.1500 
 10 N       -2.5900     0.5650     1.1700 N.2   1 <1>  -0.5650 
 11 C       -1.1580     2.2340    -0.0060 C.3   1 <1>   0.0200 
 12 C       -3.0080    -0.6830     0.9050 C.2   1 <1>   0.0770 
 13 C        2.4940    -1.3280    -0.0700 C.ar  1 <1>  -0.1430 
 14 C        3.1230     0.6570    -1.2650 C.ar  1 <1>  -0.1500 
 15 C       -1.4030     3.1880     1.1710 C.3   1 <1>  -0.2400 
 16 C        3.4470    -0.3620    -0.3750 C.ar  1 <1>   0.0830 
 17 C        2.8240    -2.4590     0.8950 C.3   1 <1>  -0.0970 
 18 O        4.6630    -0.4650     0.2210 O.3   1 <1>  -0.3630 
 19 C        5.6980     0.4570    -0.0280 C.3   1 <1>   0.1200 
 20 C        6.9090     0.0400     0.8000 C.3   1 <1>  -0.2400 
 21 H       -2.6530    -2.0480    -0.7810 H     1 <1>   0.1500 
 22 H        0.5110    -2.0180    -0.4130 H     1 <1>   0.1500 
 23 H        1.6320     1.5050    -2.5230 H     1 <1>   0.1500 
 24 H       -1.5070     2.7100    -0.9060 H     1 <1>   0.0800 
 25 H       -0.0980     2.0790    -0.0970 H     1 <1>   0.0800 
 26 H       -3.6490    -1.2140     1.5910 H     1 <1>   0.1500 
 27 H        3.8370     1.4140    -1.5290 H     1 <1>   0.1500 
 28 H       -2.4560     3.3830     1.2760 H     1 <1>   0.0800 
 29 H       -0.8920     4.1200     1.0090 H     1 <1>   0.0800 
 30 H       -1.0440     2.7480     2.0850 H     1 <1>   0.0800 
 31 H        1.9880    -3.1220     1.0250 H     1 <1>   0.0800 
 32 H        3.0910    -2.0520     1.8540 H     1 <1>   0.0800 
 33 H        3.6570    -3.0250     0.5200 H     1 <1>   0.0800 
 34 H        5.3580     1.4370     0.2620 H     1 <1>   0.0800 
 35 H        5.9290     0.4350    -1.0790 H     1 <1>   0.0800 
 36 H        6.6630     0.0490     1.8470 H     1 <1>   0.0800 
 37 H        7.7190     0.7260     0.6320 H     1 <1>   0.0800 
 38 H        7.2300    -0.9460     0.5150 H     1 <1>   0.0800 
@<TRIPOS>BOND
  1   1   2  2   
  2   1   3  2   
  3   1   4  1   
  4   1   5  1   
  5   4   6  1   
  6   4   7  1   
  7   5   8  ar  
  8   5   9  ar  
  9   6  10  2   
 10   6  11  1   
 11   7  12  2   
 12   7  21  1   
 13   8  13  ar  
 14   8  22  1   
 15   9  14  ar  
 16   9  23  1   
 17  10  12  1   
 18  11  15  1   
 19  11  24  1   
 20  11  25  1   
 21  12  26  1   
 22  13  16  ar  
 23  13  17  1   
 24  14  16  ar  
 25  14  27  1   
 26  15  28  1   
 27  15  29  1   
 28  15  30  1   
 29  16  18  1   
 30  17  31  1   
 31  17  32  1   
 32  17  33  1   
 33  18  19  1   
 34  19  20  1   
 35  19  34  1   
 36  19  35  1   
 37  20  36  1   
 38  20  37  1   
 39  20  38  1   
@<TRIPOS>SUBSTRUCTURE
  1 ****   5 GROUP 4 **** **** 0

# MOE 2024.06 (io_trps.svl 2023.06)
