@<TRIPOS>MOLECULE
2-(4,6-Dimethyl-pyrimidin-2-ylamino)-ethanol
25 25 1 0 0 
SMALL
USER_CHARGES


@<TRIPOS>ATOM
  1 O       -0.7120     0.3250     0.1510 O.3   1 <1>  -0.6800 
  2 C       -1.9960    -0.0170    -0.2600 C.3   1 <1>   0.1200 
  3 C       -2.8320    -0.4170     0.9570 C.3   1 <1>   0.2090 
  4 N       -4.1490    -0.9430     0.5200 N.pl3 1 <1>  -0.8690 
  5 C       -5.2430    -0.1690     0.3340 C.ar  1 <1>   0.7200 
  6 N       -5.0650     1.1150     0.0460 N.ar  1 <1>  -0.6200 
  7 N       -6.3900    -0.8150     0.4700 N.ar  1 <1>  -0.6200 
  8 C       -6.1580     1.8140    -0.1240 C.ar  1 <1>   0.1670 
  9 C       -7.4700    -0.0960     0.2950 C.ar  1 <1>   0.1670 
 10 C       -7.4060     1.2450    -0.0090 C.ar  1 <1>  -0.1500 
 11 C       -5.9900     3.2810    -0.4530 C.3   1 <1>  -0.0970 
 12 C       -8.7980    -0.8070     0.4400 C.3   1 <1>  -0.0970 
 13 H       -0.1840     0.6340    -0.6110 H     1 <1>   0.4000 
 14 H       -1.9220    -0.8400    -0.9490 H     1 <1>   0.0800 
 15 H       -2.4370     0.8350    -0.7490 H     1 <1>   0.0800 
 16 H       -2.9750     0.4400     1.5940 H     1 <1>   0.0800 
 17 H       -2.3150    -1.1820     1.5100 H     1 <1>   0.0800 
 18 H       -4.4040    -1.8630     0.8720 H     1 <1>   0.4000 
 19 H       -8.2960     1.8250    -0.1500 H     1 <1>   0.1500 
 20 H       -5.4460     3.7660     0.3370 H     1 <1>   0.0800 
 21 H       -6.9420     3.7650    -0.5690 H     1 <1>   0.0800 
 22 H       -5.4340     3.3820    -1.3670 H     1 <1>   0.0800 
 23 H       -8.8770    -1.2200     1.4290 H     1 <1>   0.0800 
 24 H       -8.8560    -1.6070    -0.2740 H     1 <1>   0.0800 
 25 H       -9.6180    -0.1330     0.2770 H     1 <1>   0.0800 
@<TRIPOS>BOND
  1   1   2  1   
  2   1  13  1   
  3   2   3  1   
  4   2  14  1   
  5   2  15  1   
  6   3   4  1   
  7   3  16  1   
  8   3  17  1   
  9   4   5  1   
 10   4  18  1   
 11   5   6  ar  
 12   5   7  ar  
 13   6   8  ar  
 14   7   9  ar  
 15   8  10  ar  
 16   8  11  1   
 17   9  10  ar  
 18   9  12  1   
 19  10  19  1   
 20  11  20  1   
 21  11  21  1   
 22  11  22  1   
 23  12  23  1   
 24  12  24  1   
 25  12  25  1   
@<TRIPOS>SUBSTRUCTURE
  1 ****   5 GROUP 4 **** **** 0

# MOE 2024.06 (io_trps.svl 2023.06)
