@<TRIPOS>MOLECULE
3-(2-Hydroxy-phenyl)-4,5-dihydro-isoxazole-5-carboxylic acid propylamide
34 35 1 0 0 
SMALL
USER_CHARGES


@<TRIPOS>ATOM
  1 O        0.0190    -1.9060     2.4810 O.2   1 <1>  -0.5700 
  2 C       -0.4180    -2.3930     1.4640 C.2   1 <1>   0.5690 
  3 N        0.0440    -2.0290     0.2360 N.am  1 <1>  -0.7300 
  4 C       -1.5400    -3.4280     1.5630 C.3   1 <1>   0.2610 
  5 C        1.1220    -1.0620    -0.0410 C.3   1 <1>   0.1400 
  6 O       -1.5620    -4.2380     0.4030 O.3   1 <1>  -0.2170 
  7 C       -2.9260    -2.7990     1.5620 C.3   1 <1>  -0.0990 
  8 C        2.2050    -1.7500    -0.8730 C.3   1 <1>  -0.1600 
  9 N       -2.6240    -4.0300    -0.3450 N.2   1 <1>  -0.5130 
 10 C       -3.4470    -3.2400     0.2170 C.2   1 <1>   0.3030 
 11 C        3.3550    -0.7900    -1.1960 C.3   1 <1>  -0.2400 
 12 C       -4.7120    -2.7950    -0.3460 C.ar  1 <1>   0.0860 
 13 C       -5.7000    -2.0550     0.3350 C.ar  1 <1>   0.0820 
 14 C       -4.9970    -3.1160    -1.6780 C.ar  1 <1>  -0.1500 
 15 O       -5.5600    -1.6950     1.6220 O.3   1 <1>  -0.5320 
 16 C       -6.8760    -1.6650    -0.2890 C.ar  1 <1>  -0.1500 
 17 C       -6.1680    -2.7310    -2.3020 C.ar  1 <1>  -0.1500 
 18 C       -7.1130    -2.0000    -1.6070 C.ar  1 <1>  -0.1500 
 19 H       -0.3580    -2.5150    -0.5740 H     1 <1>   0.3700 
 20 H       -1.3880    -4.0640     2.4150 H     1 <1>   0.0800 
 21 H        1.5400    -0.7040     0.8850 H     1 <1>   0.0800 
 22 H        0.7150    -0.2230    -0.5790 H     1 <1>   0.0800 
 23 H       -2.8750    -1.7280     1.6420 H     1 <1>   0.0800 
 24 H       -3.5200    -3.2050     2.3580 H     1 <1>   0.0800 
 25 H        1.7770    -2.1100    -1.7920 H     1 <1>   0.0800 
 26 H        2.5910    -2.5900    -0.3210 H     1 <1>   0.0800 
 27 H        2.9960     0.0530    -1.7610 H     1 <1>   0.0800 
 28 H        4.1050    -1.2970    -1.7770 H     1 <1>   0.0800 
 29 H        3.8110    -0.4320    -0.2890 H     1 <1>   0.0800 
 30 H       -4.2800    -3.6850    -2.2450 H     1 <1>   0.1500 
 31 H       -6.3200    -1.1950     1.9730 H     1 <1>   0.4500 
 32 H       -7.6170    -1.0990     0.2450 H     1 <1>   0.1500 
 33 H       -6.3450    -3.0000    -3.3300 H     1 <1>   0.1500 
 34 H       -8.0260    -1.6980    -2.0920 H     1 <1>   0.1500 
@<TRIPOS>BOND
  1   1   2  2   
  2   2   3  am  
  3   2   4  1   
  4   3   5  1   
  5   3  19  1   
  6   4   6  1   
  7   4   7  1   
  8   4  20  1   
  9   5   8  1   
 10   5  21  1   
 11   5  22  1   
 12   6   9  1   
 13   7  10  1   
 14   7  23  1   
 15   7  24  1   
 16   8  11  1   
 17   8  25  1   
 18   8  26  1   
 19   9  10  2   
 20  10  12  1   
 21  11  27  1   
 22  11  28  1   
 23  11  29  1   
 24  12  13  ar  
 25  12  14  ar  
 26  13  15  1   
 27  13  16  ar  
 28  14  17  ar  
 29  14  30  1   
 30  15  31  1   
 31  16  18  ar  
 32  16  32  1   
 33  17  18  ar  
 34  17  33  1   
 35  18  34  1   
@<TRIPOS>SUBSTRUCTURE
  1 ****  10 GROUP 4 **** **** 0

# MOE 2024.06 (io_trps.svl 2023.06)
