@<TRIPOS>MOLECULE
N*1*,N*1*-Diethyl-1-furan-2-yl-ethane-1,2-diamine
32 32 1 0 0 
SMALL
USER_CHARGES


@<TRIPOS>ATOM
  1 O        0.6680    -0.2430     1.3530 O.3   1 <1>  -0.2800 
  2 C        1.3580    -0.8910     0.4310 C.2   1 <1>  -0.0400 
  3 C       -0.5540    -0.7350     1.3650 C.2   1 <1>  -0.0100 
  4 C        0.5750    -1.8190    -0.1680 C.2   1 <1>  -0.1500 
  5 C        2.8210    -0.5010     0.2230 C.3   1 <1>   0.6030 
  6 C       -0.6800    -1.7140     0.4460 C.2   1 <1>  -0.1500 
  7 N        2.9760     0.9420    -0.1430 N.4   1 <1>  -0.9590 
  8 C        3.5350    -1.3290    -0.8740 C.3   1 <1>   0.1100 
  9 C        3.0460     1.8200     1.0510 C.3   1 <1>   0.3430 
 10 C        1.9500     1.3900    -1.1190 C.3   1 <1>   0.3430 
 11 N        4.7930    -0.6830    -1.3340 N.3   1 <1>  -0.9900 
 12 C        4.4080     1.6710     1.7190 C.3   1 <1>  -0.2400 
 13 C        2.4580     2.6160    -1.8690 C.3   1 <1>  -0.2400 
 14 H       -1.2750    -0.3350     2.0600 H     1 <1>   0.1500 
 15 H        0.8030    -2.5210    -0.9520 H     1 <1>   0.1500 
 16 H        3.3390    -0.6850     1.1480 H     1 <1>   0.0800 
 17 H       -1.5460    -2.3090     0.2120 H     1 <1>   0.1500 
 18 H        3.8880     0.9320    -0.6390 H     1 <1>   0.4500 
 19 H        2.8730    -1.4200    -1.7180 H     1 <1>   0.0800 
 20 H        3.7360    -2.3220    -0.5090 H     1 <1>   0.0800 
 21 H        2.2560     1.5730     1.7430 H     1 <1>   0.0800 
 22 H        2.9200     2.8490     0.7550 H     1 <1>   0.0800 
 23 H        1.0240     1.6130    -0.6100 H     1 <1>   0.0800 
 24 H        1.7590     0.6050    -1.8320 H     1 <1>   0.0800 
 25 H        5.0700    -1.0890    -2.2430 H     1 <1>   0.3600 
 26 H        5.5690    -0.9240    -0.6960 H     1 <1>   0.3600 
 27 H        4.5470     0.6870     2.1270 H     1 <1>   0.0800 
 28 H        4.4760     2.3720     2.5330 H     1 <1>   0.0800 
 29 H        5.1980     1.8940     1.0240 H     1 <1>   0.0800 
 30 H        2.5860     3.4570    -1.2120 H     1 <1>   0.0800 
 31 H        1.7370     2.8930    -2.6180 H     1 <1>   0.0800 
 32 H        3.3860     2.3980    -2.3650 H     1 <1>   0.0800 
@<TRIPOS>BOND
  1   1   2  1   
  2   1   3  1   
  3   2   4  2   
  4   2   5  1   
  5   3   6  2   
  6   3  14  1   
  7   4   6  1   
  8   4  15  1   
  9   5   7  1   
 10   5   8  1   
 11   5  16  1   
 12   6  17  1   
 13   7   9  1   
 14   7  10  1   
 15   7  18  1   
 16   8  11  1   
 17   8  19  1   
 18   8  20  1   
 19   9  12  1   
 20   9  21  1   
 21   9  22  1   
 22  10  13  1   
 23  10  23  1   
 24  10  24  1   
 25  11  25  1   
 26  11  26  1   
 27  12  27  1   
 28  12  28  1   
 29  12  29  1   
 30  13  30  1   
 31  13  31  1   
 32  13  32  1   
@<TRIPOS>SUBSTRUCTURE
  1 ****   5 GROUP 4 **** **** 0

# MOE 2024.06 (io_trps.svl 2023.06)
