@<TRIPOS>MOLECULE
NONAME
57 59 1 0 0 
SMALL
USER_CHARGES


@<TRIPOS>ATOM
  1 S       -0.3900     0.0190     2.2680 S.3   1 <1>  -0.3710 
  2 C       -0.2230     1.0650     0.8620 C.2   1 <1>   0.6510 
  3 C       -1.3310    -1.2250     1.3120 C.3   1 <1>   0.7350 
  4 N       -0.7210     0.6020    -0.2120 N.2   1 <1>  -0.5120 
  5 N        0.4220     2.2540     1.1160 N.am  1 <1>  -0.4900 
  6 N       -1.3100    -0.6740    -0.0770 N.am  1 <1>  -0.2980 
  7 C       -0.8050    -2.6610     1.5050 C.2   1 <1>   0.5690 
  8 C       -2.7290    -1.3490     1.8890 C.ar  1 <1>  -0.1440 
  9 C        0.7190     3.2970     0.3090 C.2   1 <1>   0.5690 
 10 C       -1.8350    -1.4090    -1.1130 C.2   1 <1>   0.5690 
 11 O        0.2820    -3.0740     1.1590 O.2   1 <1>  -0.5700 
 12 N       -1.7900    -3.4380     2.0590 N.am  1 <1>  -0.4770 
 13 C       -2.9220    -2.6520     2.3080 C.ar  1 <1>   0.1170 
 14 C       -3.7270    -0.4000     2.0140 C.ar  1 <1>  -0.1500 
 15 O        1.2860     4.2530     0.7700 O.2   1 <1>  -0.5700 
 16 C        0.3620     3.3050    -1.1600 C.3   1 <1>  -0.1790 
 17 O       -2.2540    -2.5400    -0.9810 O.2   1 <1>  -0.5700 
 18 C       -1.8840    -0.7970    -2.4950 C.3   1 <1>  -0.1790 
 19 C       -1.8400    -4.9200     1.9670 C.3   1 <1>   0.1400 
 20 C       -4.1290    -3.0200     2.8830 C.ar  1 <1>  -0.1500 
 21 C       -4.9400    -0.7680     2.5780 C.ar  1 <1>  -0.1430 
 22 C       -2.6000    -5.3320     0.6860 C.3   1 <1>   0.3430 
 23 C       -5.1320    -2.0740     3.0120 C.ar  1 <1>  -0.1500 
 24 C       -6.0490     0.2580     2.7260 C.3   1 <1>  -0.0970 
 25 N       -1.7900    -5.8850    -0.4660 N.4   1 <1>  -0.9590 
 26 C       -0.4850    -5.1900    -0.6750 C.3   1 <1>   0.3430 
 27 C       -2.6100    -5.8020    -1.7080 C.3   1 <1>   0.3430 
 28 C        0.3990    -5.9910    -1.6260 C.3   1 <1>  -0.2400 
 29 C       -3.7490    -6.8150    -1.6540 C.3   1 <1>  -0.2400 
 30 H        0.7320     2.3800     2.0760 H     1 <1>   0.3700 
 31 H       -3.5660     0.6110     1.6790 H     1 <1>   0.1500 
 32 H       -0.7030     3.2400    -1.2790 H     1 <1>   0.0800 
 33 H        0.8310     2.4760    -1.6560 H     1 <1>   0.0800 
 34 H        0.7050     4.2170    -1.6120 H     1 <1>   0.0800 
 35 H       -0.8860    -0.5970    -2.8380 H     1 <1>   0.0800 
 36 H       -2.4360     0.1240    -2.4640 H     1 <1>   0.0800 
 37 H       -2.3640    -1.4670    -3.1840 H     1 <1>   0.0800 
 38 H       -2.3750    -5.2880     2.8250 H     1 <1>   0.0800 
 39 H       -0.8490    -5.3350     2.0010 H     1 <1>   0.0800 
 40 H       -4.2950    -4.0210     3.2350 H     1 <1>   0.1500 
 41 H       -3.1450    -4.4670     0.3430 H     1 <1>   0.0800 
 42 H       -3.3310    -6.0720     0.9640 H     1 <1>   0.0800 
 43 H       -6.0710    -2.3540     3.4590 H     1 <1>   0.1500 
 44 H       -5.9180     0.8060     3.6420 H     1 <1>   0.0800 
 45 H       -7.0110    -0.2230     2.7450 H     1 <1>   0.0800 
 46 H       -6.0340     0.9490     1.9030 H     1 <1>   0.0800 
 47 H       -1.5790    -6.8740    -0.2850 H     1 <1>   0.4500 
 48 H        0.0400    -5.1090     0.2610 H     1 <1>   0.0800 
 49 H       -0.6420    -4.1940    -1.0560 H     1 <1>   0.0800 
 50 H       -2.0010    -6.0210    -2.5690 H     1 <1>   0.0800 
 51 H       -3.0010    -4.8020    -1.8250 H     1 <1>   0.0800 
 52 H        0.5220    -7.0010    -1.2790 H     1 <1>   0.0800 
 53 H        1.3710    -5.5320    -1.6570 H     1 <1>   0.0800 
 54 H        0.0130    -5.9900    -2.6280 H     1 <1>   0.0800 
 55 H       -3.3700    -7.8100    -1.5080 H     1 <1>   0.0800 
 56 H       -4.2740    -6.7960    -2.5930 H     1 <1>   0.0800 
 57 H       -4.4580    -6.5740    -0.8840 H     1 <1>   0.0800 
@<TRIPOS>BOND
  1   1   2  1   
  2   1   3  1   
  3   2   4  2   
  4   2   5  1   
  5   3   6  1   
  6   3   7  1   
  7   3   8  1   
  8   4   6  1   
  9   5   9  am  
 10   5  30  1   
 11   6  10  am  
 12   7  11  2   
 13   7  12  am  
 14   8  13  ar  
 15   8  14  ar  
 16   9  15  2   
 17   9  16  1   
 18  10  17  2   
 19  10  18  1   
 20  12  13  1   
 21  12  19  1   
 22  13  20  ar  
 23  14  21  ar  
 24  14  31  1   
 25  16  32  1   
 26  16  33  1   
 27  16  34  1   
 28  18  35  1   
 29  18  36  1   
 30  18  37  1   
 31  19  22  1   
 32  19  38  1   
 33  19  39  1   
 34  20  23  ar  
 35  20  40  1   
 36  21  23  ar  
 37  21  24  1   
 38  22  25  1   
 39  22  41  1   
 40  22  42  1   
 41  23  43  1   
 42  24  44  1   
 43  24  45  1   
 44  24  46  1   
 45  25  26  1   
 46  25  27  1   
 47  25  47  1   
 48  26  28  1   
 49  26  48  1   
 50  26  49  1   
 51  27  29  1   
 52  27  50  1   
 53  27  51  1   
 54  28  52  1   
 55  28  53  1   
 56  28  54  1   
 57  29  55  1   
 58  29  56  1   
 59  29  57  1   
@<TRIPOS>SUBSTRUCTURE
  1 ****   3 GROUP 4 **** **** 0

# MOE 2024.06 (io_trps.svl 2023.06)
