@<TRIPOS>MOLECULE
N-Butyl-N'-(1-methyl-5-p-tolyl-1H-imidazol-2-yl)-succinamide
52 53 1 0 0 
SMALL
USER_CHARGES


@<TRIPOS>ATOM
  1 O        0.5960     0.9590     3.2870 O.2   1 <1>  -0.5740 
  2 C        0.7000     1.9840     2.6790 C.2   1 <1>   0.8490 
  3 N        1.8040     2.1360     1.9190 N.pl3 1 <1>  -0.7330 
  4 C       -0.3650     3.0580     2.8660 C.3   1 <1>  -0.1060 
  5 C        2.1750     3.0460     1.0250 C.cat 1 <1>   1.0690 
  6 C       -1.7710     2.5700     2.4560 C.3   1 <1>  -0.1060 
  7 N        1.4000     3.6240     0.1340 N.pl3 1 <1>  -0.7030 
  8 N        3.4240     3.4750     0.8830 N.pl3 1 <1>  -0.7670 
  9 C       -1.8040     2.0400     1.0360 C.2   1 <1>   0.5650 
 10 C        2.1670     4.4680    -0.6240 C.2   1 <1>   0.1930 
 11 C        3.4380     4.3870    -0.1680 C.2   1 <1>   0.3030 
 12 C        4.6320     3.1630     1.7000 C.3   1 <1>   0.2680 
 13 O       -1.1140     2.5850     0.2070 O.2   1 <1>  -0.5740 
 14 N       -2.5720     0.9640     0.7560 N.am  1 <1>  -0.7330 
 15 C        4.6210     5.0760    -0.6230 C.ar  1 <1>   0.0330 
 16 C       -2.6950     0.3100    -0.5640 C.3   1 <1>   0.1330 
 17 C        5.6620     4.3860    -1.2410 C.ar  1 <1>  -0.1570 
 18 C        4.7570     6.4510    -0.4530 C.ar  1 <1>  -0.1570 
 19 C       -2.2790    -1.1540    -0.4330 C.3   1 <1>  -0.1670 
 20 C        6.7990     5.0450    -1.6660 C.ar  1 <1>  -0.1570 
 21 C        5.8940     7.1110    -0.8780 C.ar  1 <1>  -0.1570 
 22 C       -2.3920    -1.8830    -1.7770 C.3   1 <1>  -0.1670 
 23 C        6.9230     6.4120    -1.4850 C.ar  1 <1>  -0.1510 
 24 C       -1.9740    -3.3490    -1.6450 C.3   1 <1>  -0.2460 
 25 C        8.1710     7.1380    -1.9530 C.3   1 <1>  -0.1040 
 26 H        2.4400     1.3600     2.0450 H     1 <1>   0.4450 
 27 H       -0.1180     3.9470     2.3180 H     1 <1>   0.0730 
 28 H       -0.3860     3.3250     3.9070 H     1 <1>   0.0730 
 29 H       -2.4730     3.3800     2.5350 H     1 <1>   0.0730 
 30 H       -2.0850     1.7920     3.1290 H     1 <1>   0.0730 
 31 H        0.4030     3.3830    -0.0120 H     1 <1>   0.4450 
 32 H        1.7780     5.0630    -1.4360 H     1 <1>   0.1430 
 33 H        4.3650     2.6340     2.5980 H     1 <1>   0.0730 
 34 H        5.1300     4.0770     1.9790 H     1 <1>   0.0730 
 35 H        5.3160     2.5600     1.1280 H     1 <1>   0.0730 
 36 H       -3.1280     0.5280     1.4950 H     1 <1>   0.3640 
 37 H       -2.0690     0.8080    -1.2850 H     1 <1>   0.0730 
 38 H       -3.7170     0.3760    -0.8970 H     1 <1>   0.0730 
 39 H        5.5840     3.3250    -1.3970 H     1 <1>   0.1430 
 40 H        3.9720     7.0170     0.0180 H     1 <1>   0.1430 
 41 H       -2.9110    -1.6430     0.2880 H     1 <1>   0.0730 
 42 H       -1.2600    -1.2030    -0.0890 H     1 <1>   0.0730 
 43 H        7.5920     4.4950    -2.1440 H     1 <1>   0.1430 
 44 H        5.9800     8.1760    -0.7380 H     1 <1>   0.1430 
 45 H       -1.7630    -1.4010    -2.5060 H     1 <1>   0.0730 
 46 H       -3.4090    -1.8380    -2.1310 H     1 <1>   0.0730 
 47 H       -0.9530    -3.4210    -1.3130 H     1 <1>   0.0730 
 48 H       -2.0580    -3.8430    -2.5970 H     1 <1>   0.0730 
 49 H       -2.6050    -3.8590    -0.9390 H     1 <1>   0.0730 
 50 H        9.0250     6.4850    -1.9150 H     1 <1>   0.0730 
 51 H        8.3700     7.9890    -1.3270 H     1 <1>   0.0730 
 52 H        8.0380     7.4760    -2.9650 H     1 <1>   0.0730 
@<TRIPOS>BOND
  1   1   2  2   
  2   2   3  1   
  3   2   4  1   
  4   3   5  ar  
  5   3  26  1   
  6   4   6  1   
  7   4  27  1   
  8   4  28  1   
  9   5   7  ar  
 10   5   8  ar  
 11   6   9  1   
 12   6  29  1   
 13   6  30  1   
 14   7  10  1   
 15   7  31  1   
 16   8  11  1   
 17   8  12  1   
 18   9  13  2   
 19   9  14  am  
 20  10  11  2   
 21  10  32  1   
 22  11  15  1   
 23  12  33  1   
 24  12  34  1   
 25  12  35  1   
 26  14  16  1   
 27  14  36  1   
 28  15  17  ar  
 29  15  18  ar  
 30  16  19  1   
 31  16  37  1   
 32  16  38  1   
 33  17  20  ar  
 34  17  39  1   
 35  18  21  ar  
 36  18  40  1   
 37  19  22  1   
 38  19  41  1   
 39  19  42  1   
 40  20  23  ar  
 41  20  43  1   
 42  21  23  ar  
 43  21  44  1   
 44  22  24  1   
 45  22  45  1   
 46  22  46  1   
 47  23  25  1   
 48  24  47  1   
 49  24  48  1   
 50  24  49  1   
 51  25  50  1   
 52  25  51  1   
 53  25  52  1   
@<TRIPOS>SUBSTRUCTURE
  1 ****   7 GROUP 4 **** **** 0

# MOE 2024.06 (io_trps.svl 2023.06)
