@<TRIPOS>MOLECULE
1-(4-Ethoxy-naphthalene-1-sulfonyl)-piperidine-4-carboxylic acid ethyl ester
52 54 1 0 0 
SMALL
USER_CHARGES


@<TRIPOS>ATOM
  1 S        0.1950     0.6210    -1.6960 S.o2  1 <1>   1.4470 
  2 O       -0.0200    -0.2580    -2.8240 O.2   1 <1>  -0.6500 
  3 O        0.4430     2.0180    -1.9840 O.2   1 <1>  -0.6500 
  4 N       -1.2340     0.5720    -0.7790 N.am  1 <1>  -0.8490 
  5 C        1.4740     0.0490    -0.5260 C.ar  1 <1>  -0.0090 
  6 C       -1.6730    -0.7980    -0.4990 C.3   1 <1>   0.1960 
  7 C       -2.2950     1.3560    -1.4190 C.3   1 <1>   0.1960 
  8 C        1.8890    -1.3110    -0.3770 C.ar  1 <1>   0.0000 
  9 C        2.0330     1.0040     0.2910 C.ar  1 <1>  -0.1500 
 10 C       -2.8770    -0.7900     0.4450 C.3   1 <1>  -0.1600 
 11 C       -3.5240     1.4320    -0.5120 C.3   1 <1>  -0.1600 
 12 C        2.8570    -1.6310     0.6140 C.ar  1 <1>   0.0000 
 13 C        1.3910    -2.3970    -1.1440 C.ar  1 <1>  -0.1500 
 14 C        3.0070     0.7000     1.2370 C.ar  1 <1>  -0.1500 
 15 C       -4.0390     0.0300    -0.1390 C.3   1 <1>  -0.0190 
 16 C        3.4290    -0.5890     1.3820 C.ar  1 <1>   0.0820 
 17 C        3.2200    -2.9810     0.8200 C.ar  1 <1>  -0.1500 
 18 C        1.7790    -3.6900    -0.9360 C.ar  1 <1>  -0.1500 
 19 C       -5.2330     0.0600     0.8140 C.2   1 <1>   0.6590 
 20 O        4.3930    -0.8500     2.2870 O.3   1 <1>  -0.3620 
 21 C        2.7000    -3.9910     0.0650 C.ar  1 <1>  -0.1500 
 22 O       -5.5850     1.0580     1.3890 O.2   1 <1>  -0.5700 
 23 O       -5.8670    -1.0960     0.9660 O.3   1 <1>  -0.4300 
 24 C        5.7120    -1.0190     1.8120 C.3   1 <1>   0.1200 
 25 C       -6.9850    -1.2150     1.8140 C.3   1 <1>   0.1200 
 26 C        6.3860     0.3470     1.6920 C.3   1 <1>  -0.2400 
 27 C       -7.4600    -2.6640     1.7690 C.3   1 <1>  -0.2400 
 28 H       -0.8770    -1.3460    -0.0240 H     1 <1>   0.0800 
 29 H       -1.9290    -1.2990    -1.4190 H     1 <1>   0.0800 
 30 H       -2.5560     0.9130    -2.3670 H     1 <1>   0.0800 
 31 H       -1.9480     2.3600    -1.6040 H     1 <1>   0.0800 
 32 H        1.7220     2.0330     0.2100 H     1 <1>   0.1500 
 33 H       -2.5750    -0.3740     1.3910 H     1 <1>   0.0800 
 34 H       -3.1960    -1.8020     0.6170 H     1 <1>   0.0800 
 35 H       -4.3020     1.9840    -1.0110 H     1 <1>   0.0800 
 36 H       -3.2600     1.9760     0.3800 H     1 <1>   0.0800 
 37 H        0.6810    -2.2370    -1.9260 H     1 <1>   0.1500 
 38 H        3.4250     1.4800     1.8480 H     1 <1>   0.1500 
 39 H       -4.3730    -0.4520    -1.0410 H     1 <1>   0.0800 
 40 H        3.9230    -3.2140     1.5990 H     1 <1>   0.1500 
 41 H        1.3820    -4.4910    -1.5360 H     1 <1>   0.1500 
 42 H        2.9890    -5.0160     0.2290 H     1 <1>   0.1500 
 43 H        5.6840    -1.5250     0.8620 H     1 <1>   0.0800 
 44 H        6.2350    -1.6320     2.5250 H     1 <1>   0.0800 
 45 H       -7.7520    -0.5450     1.4630 H     1 <1>   0.0800 
 46 H       -6.6890    -0.9350     2.8110 H     1 <1>   0.0800 
 47 H        5.8940     0.9440     0.9450 H     1 <1>   0.0800 
 48 H        7.4120     0.2190     1.3980 H     1 <1>   0.0800 
 49 H        6.3610     0.8570     2.6380 H     1 <1>   0.0800 
 50 H       -7.7420    -2.9310     0.7660 H     1 <1>   0.0800 
 51 H       -8.3160    -2.7830     2.4070 H     1 <1>   0.0800 
 52 H       -6.6820    -3.3210     2.1130 H     1 <1>   0.0800 
@<TRIPOS>BOND
  1   1   2  2   
  2   1   3  2   
  3   1   4  am  
  4   1   5  1   
  5   4   6  1   
  6   4   7  1   
  7   5   8  ar  
  8   5   9  ar  
  9   6  10  1   
 10   6  28  1   
 11   6  29  1   
 12   7  11  1   
 13   7  30  1   
 14   7  31  1   
 15   8  12  ar  
 16   8  13  ar  
 17   9  14  ar  
 18   9  32  1   
 19  10  15  1   
 20  10  33  1   
 21  10  34  1   
 22  11  15  1   
 23  11  35  1   
 24  11  36  1   
 25  12  16  ar  
 26  12  17  ar  
 27  13  18  ar  
 28  13  37  1   
 29  14  16  ar  
 30  14  38  1   
 31  15  19  1   
 32  15  39  1   
 33  16  20  1   
 34  17  21  ar  
 35  17  40  1   
 36  18  21  ar  
 37  18  41  1   
 38  19  22  2   
 39  19  23  1   
 40  20  24  1   
 41  21  42  1   
 42  23  25  1   
 43  24  26  1   
 44  24  43  1   
 45  24  44  1   
 46  25  27  1   
 47  25  45  1   
 48  25  46  1   
 49  26  47  1   
 50  26  48  1   
 51  26  49  1   
 52  27  50  1   
 53  27  51  1   
 54  27  52  1   
@<TRIPOS>SUBSTRUCTURE
  1 ****   6 GROUP 4 **** **** 0

# MOE 2024.06 (io_trps.svl 2023.06)
