@<TRIPOS>MOLECULE
1-Methanesulfonyl-piperidine-3-carboxylic acid (2,4-dimethoxy-phenyl)-amide
45 46 1 0 0 
SMALL
USER_CHARGES


@<TRIPOS>ATOM
  1 S        0.3730    -0.5740     1.5310 S.o2  1 <1>   1.3330 
  2 O        0.9640    -0.0860     2.7550 O.2   1 <1>  -0.6500 
  3 O       -0.6530    -1.5900     1.5640 O.2   1 <1>  -0.6500 
  4 N        1.6250    -1.1290     0.5330 N.am  1 <1>  -0.8490 
  5 C       -0.2960     0.8310     0.6600 C.3   1 <1>  -0.1350 
  6 C        2.7390    -0.1840     0.3790 C.3   1 <1>   0.1960 
  7 C        1.1820    -1.7220    -0.7300 C.3   1 <1>   0.1960 
  8 C        3.9480    -0.8770    -0.2610 C.3   1 <1>  -0.0190 
  9 C        2.3470    -2.4530    -1.4050 C.3   1 <1>  -0.1600 
 10 C        5.0790     0.1230    -0.4440 C.2   1 <1>   0.5690 
 11 C        3.5600    -1.5330    -1.5990 C.3   1 <1>  -0.1600 
 12 O        4.8210     1.2040    -0.9190 O.2   1 <1>  -0.5700 
 13 N        6.3310    -0.2640    -0.0650 N.am  1 <1>  -0.5470 
 14 C        7.5910     0.3670    -0.0850 C.ar  1 <1>   0.1170 
 15 C        8.6790    -0.3350     0.4430 C.ar  1 <1>   0.0820 
 16 C        7.8020     1.6410    -0.6020 C.ar  1 <1>  -0.1500 
 17 O        8.4310    -1.5850     0.9410 O.3   1 <1>  -0.3630 
 18 C        9.9450     0.2410     0.4480 C.ar  1 <1>  -0.1500 
 19 C        9.0630     2.2110    -0.5960 C.ar  1 <1>  -0.1500 
 20 C        9.4580    -2.3450     1.5410 C.3   1 <1>   0.0400 
 21 C       10.1420     1.5100    -0.0680 C.ar  1 <1>   0.0820 
 22 O       11.4110     1.9950    -0.0220 O.3   1 <1>  -0.3620 
 23 C       11.7140     3.2790    -0.5220 C.3   1 <1>   0.0400 
 24 H        0.4510     1.5890     0.5380 H     1 <1>   0.0800 
 25 H       -1.1100     1.2460     1.2200 H     1 <1>   0.0800 
 26 H       -0.6620     0.5370    -0.3030 H     1 <1>   0.0800 
 27 H        3.0310     0.1960     1.3450 H     1 <1>   0.0800 
 28 H        2.4310     0.6480    -0.2320 H     1 <1>   0.0800 
 29 H        0.8040    -0.9550    -1.3860 H     1 <1>   0.0800 
 30 H        0.3910    -2.4310    -0.5430 H     1 <1>   0.0800 
 31 H        4.2740    -1.6420     0.4200 H     1 <1>   0.0800 
 32 H        2.0240    -2.8340    -2.3570 H     1 <1>   0.0800 
 33 H        2.6220    -3.2950    -0.7930 H     1 <1>   0.0800 
 34 H        4.3910    -2.0980    -1.9860 H     1 <1>   0.0800 
 35 H        3.3170    -0.7660    -2.3160 H     1 <1>   0.0800 
 36 H        6.4060    -1.2020     0.3340 H     1 <1>   0.3700 
 37 H        6.9850     2.2010    -1.0160 H     1 <1>   0.1500 
 38 H       10.8010    -0.2690     0.8440 H     1 <1>   0.1500 
 39 H        9.1790     3.1960    -1.0050 H     1 <1>   0.1500 
 40 H        9.0360    -3.2760     1.8750 H     1 <1>   0.0800 
 41 H        9.8500    -1.8000     2.3820 H     1 <1>   0.0800 
 42 H       10.2260    -2.5340     0.8120 H     1 <1>   0.0800 
 43 H       12.7660     3.4510    -0.3830 H     1 <1>   0.0800 
 44 H       11.1480     4.0100     0.0280 H     1 <1>   0.0800 
 45 H       11.4740     3.3120    -1.5700 H     1 <1>   0.0800 
@<TRIPOS>BOND
  1   1   2  2   
  2   1   3  2   
  3   1   4  am  
  4   1   5  1   
  5   4   6  1   
  6   4   7  1   
  7   5  24  1   
  8   5  25  1   
  9   5  26  1   
 10   6   8  1   
 11   6  27  1   
 12   6  28  1   
 13   7   9  1   
 14   7  29  1   
 15   7  30  1   
 16   8  10  1   
 17   8  11  1   
 18   8  31  1   
 19   9  11  1   
 20   9  32  1   
 21   9  33  1   
 22  10  12  2   
 23  10  13  am  
 24  11  34  1   
 25  11  35  1   
 26  13  14  1   
 27  13  36  1   
 28  14  15  ar  
 29  14  16  ar  
 30  15  17  1   
 31  15  18  ar  
 32  16  19  ar  
 33  16  37  1   
 34  17  20  1   
 35  18  21  ar  
 36  18  38  1   
 37  19  21  ar  
 38  19  39  1   
 39  20  40  1   
 40  20  41  1   
 41  20  42  1   
 42  21  22  1   
 43  22  23  1   
 44  23  43  1   
 45  23  44  1   
 46  23  45  1   
@<TRIPOS>SUBSTRUCTURE
  1 ****  10 GROUP 4 **** **** 0

# MOE 2024.06 (io_trps.svl 2023.06)
