@<TRIPOS>MOLECULE
2-(3-Cyano-4,6-dimethyl-2-oxo-2H-pyridin-1-yl)-N-(2-methyl-cyclohexyl)-acetamide
45 46 1 0 0 
SMALL
USER_CHARGES


@<TRIPOS>ATOM
  1 O        2.0710    -0.8820    -2.0160 O.2   1 <1>  -0.5700 
  2 C        1.8010    -1.6250    -1.0770 C.2   1 <1>   0.6160 
  3 N        2.8340    -2.2730    -0.4040 N.am  1 <1>  -0.4690 
  4 C        0.4490    -1.8320    -0.6600 C.2   1 <1>   0.0790 
  5 C        2.5350    -3.1950     0.5890 C.2   1 <1>  -0.0290 
  6 C        4.2640    -1.9460    -0.7780 C.3   1 <1>   0.2010 
  7 C       -0.5520    -1.0640    -1.3300 C.1   1 <1>   0.4920 
  8 C        0.1730    -2.7230     0.3440 C.2   1 <1>  -0.1380 
  9 C        1.2430    -3.4140     0.9540 C.2   1 <1>  -0.1500 
 10 C        3.6500    -3.9740     1.2770 C.3   1 <1>  -0.1020 
 11 C        5.0710    -1.2530     0.3250 C.2   1 <1>   0.5690 
 12 N       -1.3960    -0.4680    -1.8160 N.1   1 <1>  -0.5570 
 13 C       -1.2250    -3.0340     0.8710 C.3   1 <1>  -0.1020 
 14 O        6.0560    -1.8090     0.7460 O.2   1 <1>  -0.5700 
 15 N        4.7380    -0.0430     0.8420 N.am  1 <1>  -0.7300 
 16 C        3.6660     0.8810     0.4300 C.3   1 <1>   0.2200 
 17 C        4.2040     2.3230     0.3260 C.3   1 <1>  -0.0800 
 18 C        2.5230     0.7850     1.4460 C.3   1 <1>  -0.1600 
 19 C        3.0580     3.2880    -0.0310 C.3   1 <1>  -0.1600 
 20 C        5.3260     2.4480    -0.7180 C.3   1 <1>  -0.2400 
 21 C        1.3810     1.7410     1.0760 C.3   1 <1>  -0.1600 
 22 C        1.8930     3.1830     0.9640 C.3   1 <1>  -0.1600 
 23 H        4.3070    -1.3210    -1.6490 H     1 <1>   0.0800 
 24 H        4.7660    -2.8600    -1.0370 H     1 <1>   0.0800 
 25 H        1.0050    -4.1260     1.7260 H     1 <1>   0.1500 
 26 H        3.2440    -4.7490     1.9010 H     1 <1>   0.0800 
 27 H        4.2950    -4.4390     0.5550 H     1 <1>   0.0800 
 28 H        4.2300    -3.3220     1.9040 H     1 <1>   0.0800 
 29 H       -1.2820    -2.7940     1.9180 H     1 <1>   0.0800 
 30 H       -1.4350    -4.0820     0.7500 H     1 <1>   0.0800 
 31 H       -1.9940    -2.4810     0.3620 H     1 <1>   0.0800 
 32 H        5.3470     0.3040     1.5830 H     1 <1>   0.3700 
 33 H        3.3020     0.6000    -0.5400 H     1 <1>   0.0800 
 34 H        4.5940     2.6120     1.2880 H     1 <1>   0.0800 
 35 H        2.8910     1.0390     2.4240 H     1 <1>   0.0800 
 36 H        2.1480    -0.2210     1.4790 H     1 <1>   0.0800 
 37 H        2.6950     3.0630    -1.0200 H     1 <1>   0.0800 
 38 H        3.4250     4.3000    -0.0390 H     1 <1>   0.0800 
 39 H        4.9740     2.1410    -1.6880 H     1 <1>   0.0800 
 40 H        6.1670     1.8340    -0.4500 H     1 <1>   0.0800 
 41 H        5.6640     3.4670    -0.7820 H     1 <1>   0.0800 
 42 H        0.6080     1.6890     1.8230 H     1 <1>   0.0800 
 43 H        0.9520     1.4420     0.1340 H     1 <1>   0.0800 
 44 H        1.0900     3.8250     0.6450 H     1 <1>   0.0800 
 45 H        2.2190     3.5220     1.9320 H     1 <1>   0.0800 
@<TRIPOS>BOND
  1   1   2  2   
  2   2   3  am  
  3   2   4  1   
  4   3   5  1   
  5   3   6  1   
  6   4   7  1   
  7   4   8  2   
  8   5   9  2   
  9   5  10  1   
 10   6  11  1   
 11   6  23  1   
 12   6  24  1   
 13   7  12  3   
 14   8   9  1   
 15   8  13  1   
 16   9  25  1   
 17  10  26  1   
 18  10  27  1   
 19  10  28  1   
 20  11  14  2   
 21  11  15  am  
 22  13  29  1   
 23  13  30  1   
 24  13  31  1   
 25  15  16  1   
 26  15  32  1   
 27  16  17  1   
 28  16  18  1   
 29  16  33  1   
 30  17  19  1   
 31  17  20  1   
 32  17  34  1   
 33  18  21  1   
 34  18  35  1   
 35  18  36  1   
 36  19  22  1   
 37  19  37  1   
 38  19  38  1   
 39  20  39  1   
 40  20  40  1   
 41  20  41  1   
 42  21  22  1   
 43  21  42  1   
 44  21  43  1   
 45  22  44  1   
 46  22  45  1   
@<TRIPOS>SUBSTRUCTURE
  1 ****   2 GROUP 4 **** **** 0

# MOE 2024.06 (io_trps.svl 2023.06)
