@<TRIPOS>MOLECULE
2,7,9-Trimethyl-5-(2,4,5-trimethoxy-phenyl)-5,6-dihydro-pyrazolo[1,5-c]quinazoli
53 56 1 0 0 
SMALL
USER_CHARGES


@<TRIPOS>ATOM
  1 O        1.3130    -0.1110    -1.1720 O.3   1 <1>  -0.3630 
  2 C        2.3400     0.5350    -0.5470 C.ar  1 <1>   0.0820 
  3 C        0.4680    -0.9980    -0.4740 C.3   1 <1>   0.0400 
  4 C        3.2570     1.2480    -1.3250 C.ar  1 <1>   0.0820 
  5 C        2.5130     0.5030     0.8320 C.ar  1 <1>  -0.1500 
  6 O        3.1540     1.3270    -2.6750 O.3   1 <1>  -0.3630 
  7 C        4.3310     1.8910    -0.7330 C.ar  1 <1>  -0.1500 
  8 C        3.5830     1.1650     1.4160 C.ar  1 <1>   0.0820 
  9 C        2.1060     2.1300    -3.1690 C.3   1 <1>   0.0400 
 10 C        4.5090     1.8530     0.6440 C.ar  1 <1>  -0.1440 
 11 O        3.7320     1.1260     2.7580 O.3   1 <1>  -0.3630 
 12 C        5.6870     2.5560     1.3150 C.3   1 <1>   0.6880 
 13 C        2.8290     1.9180     3.4990 C.3   1 <1>   0.0400 
 14 N        5.4760     4.0430     1.3450 N.pl3 1 <1>   0.3140 
 15 N        6.9460     2.1690     0.5930 N.pl3 1 <1>  -0.8690 
 16 N        4.5710     4.6890     2.1270 N.2   1 <1>  -0.7070 
 17 C        6.1990     4.9090     0.5920 C.2   1 <1>  -0.2050 
 18 C        7.5730     3.0640    -0.2840 C.ar  1 <1>   0.1000 
 19 C        4.7330     5.9420     1.8420 C.2   1 <1>   0.1080 
 20 C        7.2270     4.4270    -0.2960 C.ar  1 <1>   0.0530 
 21 C        5.7260     6.1450     0.8980 C.2   1 <1>  -0.1500 
 22 C        8.5480     2.5950    -1.1660 C.ar  1 <1>  -0.1430 
 23 C        3.9100     7.0270     2.4940 C.3   1 <1>  -0.0590 
 24 C        7.8770     5.2810    -1.1790 C.ar  1 <1>  -0.1500 
 25 C        9.1730     3.4700    -2.0360 C.ar  1 <1>  -0.1500 
 26 C        8.9430     1.1230    -1.1860 C.3   1 <1>  -0.0970 
 27 C        8.8450     4.8150    -2.0480 C.ar  1 <1>  -0.1430 
 28 C        9.5490     5.7540    -3.0110 C.3   1 <1>  -0.0970 
 29 H       -0.2080    -1.4410    -1.1820 H     1 <1>   0.0800 
 30 H       -0.0860    -0.4460     0.2630 H     1 <1>   0.0800 
 31 H        1.0680    -1.7640    -0.0150 H     1 <1>   0.0800 
 32 H        1.8380    -0.0270     1.4720 H     1 <1>   0.1500 
 33 H        5.0220     2.4250    -1.3620 H     1 <1>   0.1500 
 34 H        2.2020     2.1870    -4.2380 H     1 <1>   0.0800 
 35 H        2.1890     3.1120    -2.7370 H     1 <1>   0.0800 
 36 H        1.1640     1.6840    -2.9090 H     1 <1>   0.0800 
 37 H        5.7760     2.2320     2.3350 H     1 <1>   0.0800 
 38 H        3.1240     1.8910     4.5320 H     1 <1>   0.0800 
 39 H        1.8370     1.5190     3.3880 H     1 <1>   0.0800 
 40 H        2.8670     2.9300     3.1340 H     1 <1>   0.0800 
 41 H        6.8620     1.2160     0.2360 H     1 <1>   0.4000 
 42 H        6.0440     7.0930     0.5060 H     1 <1>   0.1500 
 43 H        2.8710     6.8700     2.2720 H     1 <1>   0.0800 
 44 H        4.2080     7.9940     2.1320 H     1 <1>   0.0800 
 45 H        4.0490     6.9910     3.5590 H     1 <1>   0.0800 
 46 H        7.6120     6.3220    -1.1830 H     1 <1>   0.1500 
 47 H        9.9250     3.1080    -2.7150 H     1 <1>   0.1500 
 48 H        8.1110     0.5260    -1.5120 H     1 <1>   0.0800 
 49 H        9.2370     0.8110    -0.2000 H     1 <1>   0.0800 
 50 H        9.7670     0.9530    -1.8540 H     1 <1>   0.0800 
 51 H        9.2150     6.7670    -2.8750 H     1 <1>   0.0800 
 52 H        9.3440     5.4580    -4.0240 H     1 <1>   0.0800 
 53 H       10.6110     5.7190    -2.8450 H     1 <1>   0.0800 
@<TRIPOS>BOND
  1   1   2  1   
  2   1   3  1   
  3   2   4  ar  
  4   2   5  ar  
  5   3  29  1   
  6   3  30  1   
  7   3  31  1   
  8   4   6  1   
  9   4   7  ar  
 10   5   8  ar  
 11   5  32  1   
 12   6   9  1   
 13   7  10  ar  
 14   7  33  1   
 15   8  10  ar  
 16   8  11  1   
 17   9  34  1   
 18   9  35  1   
 19   9  36  1   
 20  10  12  1   
 21  11  13  1   
 22  12  14  1   
 23  12  15  1   
 24  12  37  1   
 25  13  38  1   
 26  13  39  1   
 27  13  40  1   
 28  14  16  1   
 29  14  17  1   
 30  15  18  1   
 31  15  41  1   
 32  16  19  2   
 33  17  20  1   
 34  17  21  2   
 35  18  20  ar  
 36  18  22  ar  
 37  19  21  1   
 38  19  23  1   
 39  20  24  ar  
 40  21  42  1   
 41  22  25  ar  
 42  22  26  1   
 43  23  43  1   
 44  23  44  1   
 45  23  45  1   
 46  24  27  ar  
 47  24  46  1   
 48  25  27  ar  
 49  25  47  1   
 50  26  48  1   
 51  26  49  1   
 52  26  50  1   
 53  27  28  1   
 54  28  51  1   
 55  28  52  1   
 56  28  53  1   
@<TRIPOS>SUBSTRUCTURE
  1 ****  10 GROUP 4 **** **** 0

# MOE 2024.06 (io_trps.svl 2023.06)
