@<TRIPOS>MOLECULE
3-Ethyl-6-(4-methoxy-benzyl)-[1,2,4]triazolo[3,4-b][1,3,4]thiadiazole
33 35 1 0 0 
SMALL
USER_CHARGES


@<TRIPOS>ATOM
  1 S       -0.2580     0.0550    -0.4260 S.3   1 <1>  -0.1970 
  2 C        0.4120     1.4110     0.4560 C.2   1 <1>   0.2420 
  3 C       -1.8730     0.7510    -0.1700 C.2   1 <1>   0.5300 
  4 N        1.5850     1.8010     0.8070 N.2   1 <1>  -0.3380 
  5 N       -0.5760     2.2020     0.8330 N.pl3 1 <1>   0.5050 
  6 N       -1.8800     1.8390     0.4900 N.2   1 <1>  -0.6520 
  7 C       -3.0260    -0.0420    -0.7650 C.3   1 <1>   0.0450 
  8 N        1.3700     2.9510     1.4760 N.2   1 <1>  -0.3380 
  9 C        0.0900     3.1730     1.4800 C.2   1 <1>   0.0070 
 10 C       -4.3480     0.7120    -0.7160 C.ar  1 <1>  -0.1440 
 11 C       -0.5950     4.3640     2.1260 C.3   1 <1>   0.0200 
 12 C       -5.1720     0.6120     0.3950 C.ar  1 <1>  -0.1500 
 13 C       -4.7370     1.5110    -1.7810 C.ar  1 <1>  -0.1500 
 14 C       -1.1340     5.3370     1.0720 C.3   1 <1>  -0.2400 
 15 C       -6.3720     1.3000     0.4450 C.ar  1 <1>  -0.1500 
 16 C       -5.9360     2.2000    -1.7330 C.ar  1 <1>  -0.1500 
 17 C       -6.7610     2.1020    -0.6250 C.ar  1 <1>   0.0830 
 18 O       -7.9160     2.8110    -0.6580 O.3   1 <1>  -0.3630 
 19 C       -8.8270     2.7790     0.4180 C.3   1 <1>   0.0400 
 20 H       -3.1190    -0.9690    -0.2300 H     1 <1>   0.0800 
 21 H       -2.7900    -0.2780    -1.7870 H     1 <1>   0.0800 
 22 H        0.1130     4.8760     2.7540 H     1 <1>   0.0800 
 23 H       -1.4030     4.0180     2.7470 H     1 <1>   0.0800 
 24 H       -4.8830     0.0000     1.2320 H     1 <1>   0.1500 
 25 H       -4.1130     1.6070    -2.6510 H     1 <1>   0.1500 
 26 H       -0.3320     5.6800     0.4420 H     1 <1>   0.0800 
 27 H       -1.5850     6.1880     1.5510 H     1 <1>   0.0800 
 28 H       -1.8750     4.8550     0.4590 H     1 <1>   0.0800 
 29 H       -6.9860     1.2030     1.3190 H     1 <1>   0.1500 
 30 H       -6.2410     2.8210    -2.5550 H     1 <1>   0.1500 
 31 H       -9.6600     3.4110     0.1690 H     1 <1>   0.0800 
 32 H       -8.3370     3.1520     1.3010 H     1 <1>   0.0800 
 33 H       -9.1640     1.7680     0.5600 H     1 <1>   0.0800 
@<TRIPOS>BOND
  1   1   2  1   
  2   1   3  1   
  3   2   4  2   
  4   2   5  1   
  5   3   6  2   
  6   3   7  1   
  7   4   8  1   
  8   5   6  1   
  9   5   9  1   
 10   7  10  1   
 11   7  20  1   
 12   7  21  1   
 13   8   9  2   
 14   9  11  1   
 15  10  12  ar  
 16  10  13  ar  
 17  11  14  1   
 18  11  22  1   
 19  11  23  1   
 20  12  15  ar  
 21  12  24  1   
 22  13  16  ar  
 23  13  25  1   
 24  14  26  1   
 25  14  27  1   
 26  14  28  1   
 27  15  17  ar  
 28  15  29  1   
 29  16  17  ar  
 30  16  30  1   
 31  17  18  1   
 32  18  19  1   
 33  19  31  1   
 34  19  32  1   
 35  19  33  1   
@<TRIPOS>SUBSTRUCTURE
  1 ****   6 GROUP 4 **** **** 0

# MOE 2024.06 (io_trps.svl 2023.06)
