@<TRIPOS>MOLECULE
(3-Hydroxy-3-trifluoromethyl-3a,4,5,6,7,8-hexahydro-3H-cycloheptapyrazol-2-yl)-t
37 39 1 0 0 
SMALL
USER_CHARGES


@<TRIPOS>ATOM
  1 S       -1.9330    -0.0730    -0.7550 S.3   1 <1>  -0.0800 
  2 C       -1.5340     0.6230     0.8230 C.2   1 <1>  -0.0450 
  3 C       -0.9790    -1.5080    -0.4490 C.2   1 <1>  -0.1100 
  4 C       -2.0340     1.9220     1.2060 C.2   1 <1>   0.7150 
  5 C       -0.7100    -0.2400     1.4730 C.2   1 <1>  -0.1500 
  6 C       -0.4030    -1.4380     0.7640 C.2   1 <1>  -0.1500 
  7 O       -1.4100     2.5700     2.0230 O.2   1 <1>  -0.5700 
  8 N       -3.2140     2.4520     0.6940 N.am  1 <1>  -0.2980 
  9 N       -4.3210     1.7250     0.2940 N.2   1 <1>  -0.5120 
 10 C       -3.4030     3.9020     0.3890 C.3   1 <1>   0.5800 
 11 C       -5.2520     2.4930    -0.0560 C.2   1 <1>   0.3280 
 12 O       -2.7180     4.0570    -0.8240 O.3   1 <1>  -0.6800 
 13 C       -3.0050     4.9820     1.4880 C.3   1 <1>   1.0200 
 14 C       -4.9280     3.9630     0.0890 C.3   1 <1>  -0.0190 
 15 C       -6.5940     2.0010    -0.5680 C.3   1 <1>  -0.0990 
 16 F       -3.4100     4.6510     2.7120 F     1 <1>  -0.3400 
 17 F       -1.7040     5.2510     1.5760 F     1 <1>  -0.3400 
 18 F       -3.5780     6.1630     1.2500 F     1 <1>  -0.3400 
 19 C       -5.3680     4.8380    -1.1100 C.3   1 <1>  -0.1600 
 20 C       -7.7810     2.9420    -0.3120 C.3   1 <1>  -0.1600 
 21 C       -6.8470     5.2460    -1.0380 C.3   1 <1>  -0.1600 
 22 C       -7.8450     4.1120    -1.3060 C.3   1 <1>  -0.1600 
 23 H       -0.9500    -2.2610    -1.2170 H     1 <1>   0.1500 
 24 H       -0.3010    -0.0560     2.4520 H     1 <1>   0.1500 
 25 H        0.2360    -2.1900     1.1950 H     1 <1>   0.1500 
 26 H       -2.8410     3.2330    -1.3340 H     1 <1>   0.4000 
 27 H       -5.4350     4.3060     0.9740 H     1 <1>   0.0800 
 28 H       -6.7950     1.0580    -0.0900 H     1 <1>   0.0800 
 29 H       -6.5080     1.8050    -1.6220 H     1 <1>   0.0800 
 30 H       -5.1670     4.3350    -2.0400 H     1 <1>   0.0800 
 31 H       -4.7880     5.7460    -1.1070 H     1 <1>   0.0800 
 32 H       -7.7720     3.3020     0.7030 H     1 <1>   0.0800 
 33 H       -8.6830     2.3650    -0.4330 H     1 <1>   0.0800 
 34 H       -7.0170     6.0110    -1.7760 H     1 <1>   0.0800 
 35 H       -7.0560     5.6900    -0.0790 H     1 <1>   0.0800 
 36 H       -8.8350     4.5340    -1.2570 H     1 <1>   0.0800 
 37 H       -7.7140     3.7450    -2.3100 H     1 <1>   0.0800 
@<TRIPOS>BOND
  1   1   2  1   
  2   1   3  1   
  3   2   4  1   
  4   2   5  2   
  5   3   6  2   
  6   3  23  1   
  7   4   7  2   
  8   4   8  am  
  9   5   6  1   
 10   5  24  1   
 11   6  25  1   
 12   8   9  1   
 13   8  10  1   
 14   9  11  2   
 15  10  12  1   
 16  10  13  1   
 17  10  14  1   
 18  11  14  1   
 19  11  15  1   
 20  12  26  1   
 21  13  16  1   
 22  13  17  1   
 23  13  18  1   
 24  14  19  1   
 25  14  27  1   
 26  15  20  1   
 27  15  28  1   
 28  15  29  1   
 29  19  21  1   
 30  19  30  1   
 31  19  31  1   
 32  20  22  1   
 33  20  32  1   
 34  20  33  1   
 35  21  22  1   
 36  21  34  1   
 37  21  35  1   
 38  22  36  1   
 39  22  37  1   
@<TRIPOS>SUBSTRUCTURE
  1 ****   8 GROUP 4 **** **** 0

# MOE 2024.06 (io_trps.svl 2023.06)
