@<TRIPOS>MOLECULE
4-Ethoxy-2,3-dimethyl-N-pyridin-2-ylmethyl-benzenesulfonamide
42 43 1 0 0 
SMALL
USER_CHARGES


@<TRIPOS>ATOM
  1 S        0.0620    -1.7030    -0.7240 S.o2  1 <1>   1.4470 
  2 O       -0.4010    -1.6260    -2.0900 O.2   1 <1>  -0.6500 
  3 O        0.1800    -3.0060    -0.1060 O.2   1 <1>  -0.6500 
  4 N       -1.1040    -0.8960     0.1600 N.am  1 <1>  -0.9140 
  5 C        1.5890    -0.7350    -0.4730 C.ar  1 <1>  -0.0090 
  6 C       -2.3010    -1.7010     0.3200 C.3   1 <1>   0.3390 
  7 C        1.7200     0.6380    -0.7370 C.ar  1 <1>  -0.1440 
  8 C        2.7000    -1.4100     0.0190 C.ar  1 <1>  -0.1500 
  9 C       -3.4870    -0.7820     0.5940 C.ar  1 <1>   0.1660 
 10 C        2.9220     1.3010    -0.4680 C.ar  1 <1>  -0.1430 
 11 C        0.5390     1.4270    -1.3170 C.3   1 <1>  -0.0960 
 12 C        3.8980    -0.7720     0.2580 C.ar  1 <1>  -0.1500 
 13 N       -3.7260     0.1610    -0.3130 N.ar  1 <1>  -0.6200 
 14 C       -4.2430    -0.9580     1.7450 C.ar  1 <1>  -0.1500 
 15 C        4.0200     0.5880     0.0160 C.ar  1 <1>   0.0830 
 16 C        3.0590     2.8110    -0.6950 C.3   1 <1>  -0.0970 
 17 C       -4.7600     0.9490    -0.0620 C.ar  1 <1>   0.1600 
 18 C       -5.3160    -0.1280     1.9910 C.ar  1 <1>  -0.1500 
 19 O        5.1850     1.2540     0.2340 O.3   1 <1>  -0.3630 
 20 C       -5.5730     0.8490     1.0540 C.ar  1 <1>  -0.1500 
 21 C        6.3460     0.6150     0.7100 C.3   1 <1>   0.1200 
 22 C        7.4490     1.6630     0.8250 C.3   1 <1>  -0.2400 
 23 H       -1.4260    -0.1420    -0.4490 H     1 <1>   0.4200 
 24 H       -2.1600    -2.4050     1.1210 H     1 <1>   0.0800 
 25 H       -2.5090    -2.2480    -0.5850 H     1 <1>   0.0800 
 26 H        2.6290    -2.4650     0.2240 H     1 <1>   0.1500 
 27 H        0.8740     2.2330    -1.9430 H     1 <1>   0.0800 
 28 H       -0.0870     0.8230    -1.9440 H     1 <1>   0.0800 
 29 H       -0.0550     1.8350    -0.5190 H     1 <1>   0.0800 
 30 H        4.7180    -1.3530     0.6330 H     1 <1>   0.1500 
 31 H       -3.9960    -1.7350     2.4460 H     1 <1>   0.1500 
 32 H        2.1820     3.3270    -0.3500 H     1 <1>   0.0800 
 33 H        3.2000     3.0090    -1.7410 H     1 <1>   0.0800 
 34 H        3.8900     3.2290    -0.1590 H     1 <1>   0.0800 
 35 H       -4.9730     1.7170    -0.7850 H     1 <1>   0.1500 
 36 H       -5.9230    -0.2370     2.8730 H     1 <1>   0.1500 
 37 H       -6.3960     1.5290     1.1850 H     1 <1>   0.1500 
 38 H        6.6240    -0.1530     0.0090 H     1 <1>   0.0800 
 39 H        6.1280     0.1850     1.6720 H     1 <1>   0.0800 
 40 H        7.6460     2.0990    -0.1380 H     1 <1>   0.0800 
 41 H        8.3510     1.2060     1.1860 H     1 <1>   0.0800 
 42 H        7.1540     2.4340     1.5140 H     1 <1>   0.0800 
@<TRIPOS>BOND
  1   1   2  2   
  2   1   3  2   
  3   1   4  am  
  4   1   5  1   
  5   4   6  1   
  6   4  23  1   
  7   5   7  ar  
  8   5   8  ar  
  9   6   9  1   
 10   6  24  1   
 11   6  25  1   
 12   7  10  ar  
 13   7  11  1   
 14   8  12  ar  
 15   8  26  1   
 16   9  13  ar  
 17   9  14  ar  
 18  10  15  ar  
 19  10  16  1   
 20  11  27  1   
 21  11  28  1   
 22  11  29  1   
 23  12  15  ar  
 24  12  30  1   
 25  13  17  ar  
 26  14  18  ar  
 27  14  31  1   
 28  15  19  1   
 29  16  32  1   
 30  16  33  1   
 31  16  34  1   
 32  17  20  ar  
 33  17  35  1   
 34  18  20  ar  
 35  18  36  1   
 36  19  21  1   
 37  20  37  1   
 38  21  22  1   
 39  21  38  1   
 40  21  39  1   
 41  22  40  1   
 42  22  41  1   
 43  22  42  1   
@<TRIPOS>SUBSTRUCTURE
  1 ****   5 GROUP 4 **** **** 0

# MOE 2024.06 (io_trps.svl 2023.06)
