@<TRIPOS>MOLECULE
1-(3-Chloro-4-methoxy-benzenesulfonyl)-piperidine-4-carboxylic acid (tetrahydro-
52 54 1 0 0 
SMALL
USER_CHARGES


@<TRIPOS>ATOM
  1 CL       4.2300     2.2500    -3.5930 Cl    1 <1>  -0.1770 
  2 C        3.6490     1.6650    -2.0500 C.ar  1 <1>   0.1770 
  3 C        2.4610     2.1500    -1.5140 C.ar  1 <1>   0.0820 
  4 C        4.4050     0.7180    -1.3880 C.ar  1 <1>  -0.1500 
  5 O        1.7670     3.0830    -2.2160 O.3   1 <1>  -0.3630 
  6 C        2.0450     1.6530    -0.2820 C.ar  1 <1>  -0.1500 
  7 C        4.0020     0.2250    -0.1530 C.ar  1 <1>  -0.0090 
  8 C        0.5400     3.6030    -1.7520 C.3   1 <1>   0.0400 
  9 C        2.8100     0.7060     0.3810 C.ar  1 <1>  -0.1500 
 10 S        5.0050    -1.0060     0.7230 S.o2  1 <1>   1.4470 
 11 O        5.0040    -2.2370    -0.0360 O.2   1 <1>  -0.6500 
 12 O        4.6530    -1.0300     2.1260 O.2   1 <1>  -0.6500 
 13 N        6.5680    -0.3520     0.6220 N.am  1 <1>  -0.8490 
 14 C        7.5910    -1.3640     0.8980 C.3   1 <1>   0.1960 
 15 C        6.7340     0.8120     1.4970 C.3   1 <1>   0.1960 
 16 C        8.9800    -0.7910     0.6050 C.3   1 <1>  -0.1600 
 17 C        8.0790     1.4830     1.2140 C.3   1 <1>  -0.1600 
 18 C        9.2410     0.4940     1.4100 C.3   1 <1>  -0.0190 
 19 C       10.5900     1.1190     1.0670 C.2   1 <1>   0.5690 
 20 O       11.4330     1.1930     1.9270 O.2   1 <1>  -0.5700 
 21 N       10.8130     1.5670    -0.1950 N.am  1 <1>  -0.7300 
 22 C       12.0800     2.1990    -0.6600 C.3   1 <1>   0.1400 
 23 C       13.2410     1.1940    -0.7190 C.3   1 <1>   0.2000 
 24 O       14.3110     1.7660    -1.3950 O.3   1 <1>  -0.5600 
 25 C       12.9550    -0.0820    -1.5020 C.3   1 <1>  -0.1600 
 26 C       15.1790     0.7710    -1.8330 C.3   1 <1>   0.1200 
 27 C       14.3270    -0.4840    -2.0200 C.3   1 <1>  -0.1600 
 28 H        5.3170     0.3640    -1.8360 H     1 <1>   0.1500 
 29 H        1.1340     1.9900     0.1760 H     1 <1>   0.1500 
 30 H        0.1830     4.3100    -2.4800 H     1 <1>   0.0800 
 31 H        0.7030     4.0990    -0.8120 H     1 <1>   0.0800 
 32 H       -0.1650     2.7970    -1.6490 H     1 <1>   0.0800 
 33 H        2.4750     0.3310     1.3350 H     1 <1>   0.1500 
 34 H        7.4380    -2.2250     0.2680 H     1 <1>   0.0800 
 35 H        7.5250    -1.6840     1.9260 H     1 <1>   0.0800 
 36 H        6.6820     0.5100     2.5320 H     1 <1>   0.0800 
 37 H        5.9450     1.5240     1.3160 H     1 <1>   0.0800 
 38 H        9.0500    -0.5930    -0.4500 H     1 <1>   0.0800 
 39 H        9.7270    -1.5260     0.8510 H     1 <1>   0.0800 
 40 H        8.2060     2.3210     1.8770 H     1 <1>   0.0800 
 41 H        8.0690     1.8590     0.2060 H     1 <1>   0.0800 
 42 H        9.2720     0.2270     2.4530 H     1 <1>   0.0800 
 43 H       10.0800     1.4710    -0.8990 H     1 <1>   0.3700 
 44 H       12.3460     2.9940     0.0160 H     1 <1>   0.0800 
 45 H       11.9250     2.6160    -1.6390 H     1 <1>   0.0800 
 46 H       13.5770     0.9580     0.2780 H     1 <1>   0.0800 
 47 H       12.2970     0.1360    -2.3250 H     1 <1>   0.0800 
 48 H       12.5090    -0.8350    -0.8770 H     1 <1>   0.0800 
 49 H       15.9290     0.6240    -1.0740 H     1 <1>   0.0800 
 50 H       15.6380     1.0940    -2.7510 H     1 <1>   0.0800 
 51 H       14.2880    -0.7740    -3.0550 H     1 <1>   0.0800 
 52 H       14.7400    -1.2920    -1.4420 H     1 <1>   0.0800 
@<TRIPOS>BOND
  1   1   2  1   
  2   2   3  ar  
  3   2   4  ar  
  4   3   5  1   
  5   3   6  ar  
  6   4   7  ar  
  7   4  28  1   
  8   5   8  1   
  9   6   9  ar  
 10   6  29  1   
 11   7   9  ar  
 12   7  10  1   
 13   8  30  1   
 14   8  31  1   
 15   8  32  1   
 16   9  33  1   
 17  10  11  2   
 18  10  12  2   
 19  10  13  am  
 20  13  14  1   
 21  13  15  1   
 22  14  16  1   
 23  14  34  1   
 24  14  35  1   
 25  15  17  1   
 26  15  36  1   
 27  15  37  1   
 28  16  18  1   
 29  16  38  1   
 30  16  39  1   
 31  17  18  1   
 32  17  40  1   
 33  17  41  1   
 34  18  19  1   
 35  18  42  1   
 36  19  20  2   
 37  19  21  am  
 38  21  22  1   
 39  21  43  1   
 40  22  23  1   
 41  22  44  1   
 42  22  45  1   
 43  23  24  1   
 44  23  25  1   
 45  23  46  1   
 46  24  26  1   
 47  25  27  1   
 48  25  47  1   
 49  25  48  1   
 50  26  27  1   
 51  26  49  1   
 52  26  50  1   
 53  27  51  1   
 54  27  52  1   
@<TRIPOS>SUBSTRUCTURE
  1 ****  13 GROUP 4 **** **** 0

# MOE 2024.06 (io_trps.svl 2023.06)
