@<TRIPOS>MOLECULE
Piperidine-1-carboxylic acid pyridin-3-ylamide
30 31 1 0 0 
SMALL
USER_CHARGES


@<TRIPOS>ATOM
  1 O        0.2040     0.0980    -0.2810 O.2   1 <1>  -0.5700 
  2 C        0.7450     1.1850    -0.2230 C.2   1 <1>   0.6900 
  3 N        2.1010     1.3000    -0.3980 N.am  1 <1>  -0.6600 
  4 N        0.0210     2.3110     0.0460 N.am  1 <1>  -0.5470 
  5 C        2.7900     2.5360    -0.8610 C.3   1 <1>   0.1400 
  6 C        2.9870     0.1070    -0.3130 C.3   1 <1>   0.1400 
  7 C       -1.3650     2.5180     0.1550 C.ar  1 <1>   0.1170 
  8 C        3.9460     2.8630     0.0910 C.3   1 <1>  -0.1600 
  9 C        4.1590     0.4050     0.6290 C.3   1 <1>  -0.1600 
 10 C       -2.3340     1.6550    -0.3660 C.ar  1 <1>   0.1600 
 11 C       -1.8110     3.6570     0.8040 C.ar  1 <1>  -0.1500 
 12 C        4.9140     1.6780     0.2200 C.3   1 <1>  -0.1600 
 13 N       -3.6470     1.8360    -0.2950 N.ar  1 <1>  -0.6200 
 14 C       -3.1710     3.8610     0.8910 C.ar  1 <1>  -0.1500 
 15 C       -4.0340     2.9330     0.3340 C.ar  1 <1>   0.1600 
 16 H        0.6120     3.0860     0.3220 H     1 <1>   0.3700 
 17 H        2.1100     3.3670    -0.9160 H     1 <1>   0.0800 
 18 H        3.1770     2.3630    -1.8510 H     1 <1>   0.0800 
 19 H        3.3530    -0.1290    -1.2980 H     1 <1>   0.0800 
 20 H        2.4410    -0.7460     0.0540 H     1 <1>   0.0800 
 21 H        3.5450     3.1120     1.0580 H     1 <1>   0.0800 
 22 H        4.4770     3.7230    -0.2770 H     1 <1>   0.0800 
 23 H        4.8340    -0.4320     0.6300 H     1 <1>   0.0800 
 24 H        3.7760     0.5150     1.6290 H     1 <1>   0.0800 
 25 H       -2.0060     0.7670    -0.8760 H     1 <1>   0.1500 
 26 H       -1.1200     4.3620     1.2290 H     1 <1>   0.1500 
 27 H        5.6710     1.9030     0.9520 H     1 <1>   0.0800 
 28 H        5.4040     1.5130    -0.7240 H     1 <1>   0.0800 
 29 H       -3.5650     4.7290     1.3870 H     1 <1>   0.1500 
 30 H       -5.0950     3.1010     0.4070 H     1 <1>   0.1500 
@<TRIPOS>BOND
  1   1   2  2   
  2   2   3  am  
  3   2   4  am  
  4   3   5  1   
  5   3   6  1   
  6   4   7  1   
  7   4  16  1   
  8   5   8  1   
  9   5  17  1   
 10   5  18  1   
 11   6   9  1   
 12   6  19  1   
 13   6  20  1   
 14   7  10  ar  
 15   7  11  ar  
 16   8  12  1   
 17   8  21  1   
 18   8  22  1   
 19   9  12  1   
 20   9  23  1   
 21   9  24  1   
 22  10  13  ar  
 23  10  25  1   
 24  11  14  ar  
 25  11  26  1   
 26  12  27  1   
 27  12  28  1   
 28  13  15  ar  
 29  14  15  ar  
 30  14  29  1   
 31  15  30  1   
@<TRIPOS>SUBSTRUCTURE
  1 ****   4 GROUP 4 **** **** 0

# MOE 2024.06 (io_trps.svl 2023.06)
