@<TRIPOS>MOLECULE
1-tert-Butyl-4-(1-prop-2-ynyl-1H-benzoimidazol-2-yl)-pyrrolidin-2-one
43 45 1 0 0 
SMALL
USER_CHARGES


@<TRIPOS>ATOM
  1 O       -1.0440    -2.0570     1.8500 O.2   1 <1>  -0.5700 
  2 C       -1.7500    -2.4090     0.9370 C.2   1 <1>   0.5690 
  3 N       -1.3600    -2.8250    -0.2970 N.am  1 <1>  -0.6600 
  4 C       -3.2460    -2.4250     1.0770 C.3   1 <1>  -0.0990 
  5 C        0.0230    -2.7640    -0.8530 C.3   1 <1>   0.3000 
  6 C       -2.5460    -3.1360    -1.1330 C.3   1 <1>   0.1400 
  7 C       -3.7010    -3.2570    -0.1260 C.3   1 <1>   0.1000 
  8 C        0.0710    -3.2990    -2.2920 C.3   1 <1>  -0.2400 
  9 C        0.9510    -3.6260     0.0080 C.3   1 <1>  -0.2400 
 10 C        0.4910    -1.3070    -0.8590 C.3   1 <1>  -0.2400 
 11 C       -5.0640    -2.8400    -0.6760 C.2   1 <1>   0.0060 
 12 N       -5.2260    -2.3210    -1.8450 N.2   1 <1>  -0.5650 
 13 N       -6.2300    -2.9870     0.0240 N.pl3 1 <1>   0.0480 
 14 C       -6.5630    -2.0940    -1.9410 C.ar  1 <1>   0.2270 
 15 C       -7.2060    -2.4980    -0.7880 C.ar  1 <1>  -0.1520 
 16 C       -6.4610    -3.6350     1.3330 C.3   1 <1>   0.2960 
 17 C       -7.2910    -1.5430    -2.9940 C.ar  1 <1>  -0.1500 
 18 C       -8.5910    -2.3560    -0.6510 C.ar  1 <1>  -0.1500 
 19 C       -6.4000    -2.6310     2.4350 C.1   1 <1>  -0.2000 
 20 C       -8.6570    -1.4050    -2.8680 C.ar  1 <1>  -0.1500 
 21 C       -9.3050    -1.8110    -1.6950 C.ar  1 <1>  -0.1500 
 22 C       -6.3390    -1.8260     3.3090 C.1   1 <1>  -0.1770 
 23 H       -3.6090    -1.4160     1.0100 H     1 <1>   0.0800 
 24 H       -3.5330    -2.8650     2.0120 H     1 <1>   0.0800 
 25 H       -2.4260    -4.0560    -1.6760 H     1 <1>   0.0800 
 26 H       -2.7080    -2.3220    -1.8200 H     1 <1>   0.0800 
 27 H       -3.7470    -4.2910     0.1670 H     1 <1>   0.0800 
 28 H       -0.5480    -2.7090    -2.9430 H     1 <1>   0.0800 
 29 H       -0.2410    -4.3260    -2.3260 H     1 <1>   0.0800 
 30 H        1.0770    -3.2490    -2.6680 H     1 <1>   0.0800 
 31 H        0.5840    -4.6340     0.0570 H     1 <1>   0.0800 
 32 H        1.0250    -3.2330     1.0050 H     1 <1>   0.0800 
 33 H        1.9400    -3.6410    -0.4110 H     1 <1>   0.0800 
 34 H       -0.1860    -0.7000    -1.4330 H     1 <1>   0.0800 
 35 H        1.4710    -1.2310    -1.2940 H     1 <1>   0.0800 
 36 H        0.5450    -0.9190     0.1420 H     1 <1>   0.0800 
 37 H       -5.7200    -4.3960     1.4900 H     1 <1>   0.0800 
 38 H       -7.4280    -4.1040     1.3230 H     1 <1>   0.0800 
 39 H       -6.7660    -1.2390    -3.8800 H     1 <1>   0.1500 
 40 H       -9.0850    -2.6620     0.2540 H     1 <1>   0.1500 
 41 H       -9.2350    -0.9820    -3.6710 H     1 <1>   0.1500 
 42 H      -10.3710    -1.6900    -1.6190 H     1 <1>   0.1500 
 43 H       -6.2820    -1.0910     4.0930 H     1 <1>   0.1770 
@<TRIPOS>BOND
  1   1   2  2   
  2   2   3  am  
  3   2   4  1   
  4   3   5  1   
  5   3   6  1   
  6   4   7  1   
  7   4  23  1   
  8   4  24  1   
  9   5   8  1   
 10   5   9  1   
 11   5  10  1   
 12   6   7  1   
 13   6  25  1   
 14   6  26  1   
 15   7  11  1   
 16   7  27  1   
 17   8  28  1   
 18   8  29  1   
 19   8  30  1   
 20   9  31  1   
 21   9  32  1   
 22   9  33  1   
 23  10  34  1   
 24  10  35  1   
 25  10  36  1   
 26  11  12  2   
 27  11  13  1   
 28  12  14  1   
 29  13  15  1   
 30  13  16  1   
 31  14  15  ar  
 32  14  17  ar  
 33  15  18  ar  
 34  16  19  1   
 35  16  37  1   
 36  16  38  1   
 37  17  20  ar  
 38  17  39  1   
 39  18  21  ar  
 40  18  40  1   
 41  19  22  3   
 42  20  21  ar  
 43  20  41  1   
 44  21  42  1   
 45  22  43  1   
@<TRIPOS>SUBSTRUCTURE
  1 ****  11 GROUP 4 **** **** 0

# MOE 2024.06 (io_trps.svl 2023.06)
