@<TRIPOS>MOLECULE
1-(3-Benzenesulfonyl-imidazolidin-1-yl)-2-morpholin-4-yl-ethanone
44 46 1 0 0 
SMALL
USER_CHARGES


@<TRIPOS>ATOM
  1 S        0.9300    -0.4890     0.8320 S.o2  1 <1>   1.4470 
  2 O        0.6090     0.1760     2.0760 O.2   1 <1>  -0.6500 
  3 O        1.8070    -1.6370     0.8530 O.2   1 <1>  -0.6500 
  4 N        1.6910     0.6590    -0.1370 N.am  1 <1>  -0.8490 
  5 C       -0.5790    -0.8730    -0.0990 C.ar  1 <1>  -0.0090 
  6 C        3.0230     0.9030     0.3640 C.3   1 <1>   0.4960 
  7 C        1.0290     1.9570    -0.2070 C.3   1 <1>   0.1960 
  8 C       -1.8400    -0.6370     0.4390 C.ar  1 <1>  -0.1500 
  9 C       -0.5080    -1.4030    -1.3820 C.ar  1 <1>  -0.1500 
 10 N        3.3400     2.2610    -0.1010 N.am  1 <1>  -0.6600 
 11 C        2.1330     2.9060    -0.6350 C.3   1 <1>   0.1400 
 12 C       -2.9900    -0.9170    -0.2790 C.ar  1 <1>  -0.1500 
 13 C       -1.6520    -1.6860    -2.1070 C.ar  1 <1>  -0.1500 
 14 C        4.5300     2.9040     0.0860 C.2   1 <1>   0.5690 
 15 C       -2.8960    -1.4420    -1.5550 C.ar  1 <1>  -0.1500 
 16 O        4.6880     4.0370    -0.3060 O.2   1 <1>  -0.5700 
 17 C        5.7030     2.2330     0.8250 C.3   1 <1>   0.1710 
 18 N        6.0370     0.8470     0.3930 N.3   1 <1>  -0.8100 
 19 C        7.0880     0.2590     1.2440 C.3   1 <1>   0.1100 
 20 C        6.4710     0.8160    -1.0200 C.3   1 <1>   0.1100 
 21 C        7.4680    -1.1500     0.7540 C.3   1 <1>   0.1200 
 22 C        6.8770    -0.6080    -1.4410 C.3   1 <1>   0.1200 
 23 O        7.8650    -1.1100    -0.5870 O.3   1 <1>  -0.5600 
 24 H        3.7080     0.1760    -0.0410 H     1 <1>   0.0800 
 25 H        3.0520     0.8750     1.4420 H     1 <1>   0.0800 
 26 H        0.6650     2.2600     0.7610 H     1 <1>   0.0800 
 27 H        0.2150     1.9470    -0.9110 H     1 <1>   0.0800 
 28 H       -1.9250    -0.2300     1.4330 H     1 <1>   0.1500 
 29 H        0.4590    -1.5960    -1.8170 H     1 <1>   0.1500 
 30 H        1.9980     3.8930    -0.2270 H     1 <1>   0.0800 
 31 H        2.1960     2.9570    -1.7080 H     1 <1>   0.0800 
 32 H       -3.9570    -0.7280     0.1550 H     1 <1>   0.1500 
 33 H       -1.5750    -2.0980    -3.0990 H     1 <1>   0.1500 
 34 H       -3.7880    -1.6610    -2.1160 H     1 <1>   0.1500 
 35 H        5.4530     2.2200     1.8700 H     1 <1>   0.0800 
 36 H        6.5700     2.8580     0.7080 H     1 <1>   0.0800 
 37 H        6.7340     0.1940     2.2590 H     1 <1>   0.0800 
 38 H        7.9670     0.8810     1.2310 H     1 <1>   0.0800 
 39 H        7.3100     1.4750    -1.1650 H     1 <1>   0.0800 
 40 H        5.6690     1.1510    -1.6550 H     1 <1>   0.0800 
 41 H        6.6320    -1.8210     0.8480 H     1 <1>   0.0800 
 42 H        8.2910    -1.5360     1.3280 H     1 <1>   0.0800 
 43 H        7.2770    -0.6020    -2.4390 H     1 <1>   0.0800 
 44 H        6.0260    -1.2660    -1.4110 H     1 <1>   0.0800 
@<TRIPOS>BOND
  1   1   2  2   
  2   1   3  2   
  3   1   4  am  
  4   1   5  1   
  5   4   6  1   
  6   4   7  1   
  7   5   8  ar  
  8   5   9  ar  
  9   6  10  1   
 10   6  24  1   
 11   6  25  1   
 12   7  11  1   
 13   7  26  1   
 14   7  27  1   
 15   8  12  ar  
 16   8  28  1   
 17   9  13  ar  
 18   9  29  1   
 19  10  11  1   
 20  10  14  am  
 21  11  30  1   
 22  11  31  1   
 23  12  15  ar  
 24  12  32  1   
 25  13  15  ar  
 26  13  33  1   
 27  14  16  2   
 28  14  17  1   
 29  15  34  1   
 30  17  18  1   
 31  17  35  1   
 32  17  36  1   
 33  18  19  1   
 34  18  20  1   
 35  19  21  1   
 36  19  37  1   
 37  19  38  1   
 38  20  22  1   
 39  20  39  1   
 40  20  40  1   
 41  21  23  1   
 42  21  41  1   
 43  21  42  1   
 44  22  23  1   
 45  22  43  1   
 46  22  44  1   
@<TRIPOS>SUBSTRUCTURE
  1 ****   6 GROUP 4 **** **** 0

# MOE 2024.06 (io_trps.svl 2023.06)
