@<TRIPOS>MOLECULE
[2-Methyl-4-(piperidine-1-sulfonyl)-phenoxy]-acetic acid methyl ester
43 44 1 0 0 
SMALL
USER_CHARGES


@<TRIPOS>ATOM
  1 S        0.3840    -0.3590     1.6290 S.o2  1 <1>   1.4470 
  2 O       -0.2300     0.3020     2.7600 O.2   1 <1>  -0.6500 
  3 O        0.3230    -1.8040     1.5390 O.2   1 <1>  -0.6500 
  4 N       -0.3610     0.2440     0.2300 N.am  1 <1>  -0.8490 
  5 C        2.0990     0.2100     1.4650 C.ar  1 <1>  -0.0090 
  6 C       -1.8220     0.1780     0.3380 C.3   1 <1>   0.1960 
  7 C        0.1070    -0.4410    -0.9800 C.3   1 <1>   0.1960 
  8 C        3.1680    -0.6680     1.5980 C.ar  1 <1>  -0.1500 
  9 C        2.3860     1.5430     1.2020 C.ar  1 <1>  -0.1500 
 10 C       -2.4770     0.8640    -0.8660 C.3   1 <1>  -0.1600 
 11 C       -0.4690     0.2350    -2.2280 C.3   1 <1>  -0.1600 
 12 C        4.4810    -0.2430     1.4700 C.ar  1 <1>  -0.1430 
 13 C        3.6900     1.9880     1.0710 C.ar  1 <1>  -0.1500 
 14 C       -2.0010     0.2560    -2.1910 C.3   1 <1>  -0.1600 
 15 C        4.7500     1.0960     1.2050 C.ar  1 <1>   0.0830 
 16 C        5.6150    -1.2470     1.6220 C.3   1 <1>  -0.0970 
 17 O        6.0540     1.4630     1.0930 O.3   1 <1>  -0.3630 
 18 C        6.4590     2.7780     0.7400 C.3   1 <1>   0.1810 
 19 C        6.1890     3.0920    -0.7260 C.2   1 <1>   0.6590 
 20 O        5.3990     3.9430    -1.0510 O.2   1 <1>  -0.5700 
 21 O        6.8890     2.4020    -1.6210 O.3   1 <1>  -0.4300 
 22 C        6.7220     2.6010    -3.0090 C.3   1 <1>   0.0400 
 23 H       -2.1440     0.6800     1.2350 H     1 <1>   0.0800 
 24 H       -2.1370    -0.8510     0.3970 H     1 <1>   0.0800 
 25 H       -0.1910    -1.4770    -0.9560 H     1 <1>   0.0800 
 26 H        1.1830    -0.4020    -1.0290 H     1 <1>   0.0800 
 27 H        2.9610    -1.7040     1.8060 H     1 <1>   0.1500 
 28 H        1.5730     2.2420     1.0960 H     1 <1>   0.1500 
 29 H       -2.2330     1.9120    -0.8390 H     1 <1>   0.0800 
 30 H       -3.5460     0.7740    -0.7890 H     1 <1>   0.0800 
 31 H       -0.1350    -0.2890    -3.1050 H     1 <1>   0.0800 
 32 H       -0.0910     1.2420    -2.2820 H     1 <1>   0.0800 
 33 H        3.8480     3.0300     0.8670 H     1 <1>   0.1500 
 34 H       -2.3830     0.8280    -3.0180 H     1 <1>   0.0800 
 35 H       -2.3750    -0.7510    -2.2770 H     1 <1>   0.0800 
 36 H        5.2400    -2.2360     1.8100 H     1 <1>   0.0800 
 37 H        6.2490    -0.9580     2.4410 H     1 <1>   0.0800 
 38 H        6.2040    -1.2690     0.7220 H     1 <1>   0.0800 
 39 H        7.5160     2.8430     0.9180 H     1 <1>   0.0800 
 40 H        5.9590     3.4800     1.3800 H     1 <1>   0.0800 
 41 H        7.3880     1.9380    -3.5310 H     1 <1>   0.0800 
 42 H        6.9560     3.6250    -3.2450 H     1 <1>   0.0800 
 43 H        5.7010     2.3840    -3.2700 H     1 <1>   0.0800 
@<TRIPOS>BOND
  1   1   2  2   
  2   1   3  2   
  3   1   4  am  
  4   1   5  1   
  5   4   6  1   
  6   4   7  1   
  7   5   8  ar  
  8   5   9  ar  
  9   6  10  1   
 10   6  23  1   
 11   6  24  1   
 12   7  11  1   
 13   7  25  1   
 14   7  26  1   
 15   8  12  ar  
 16   8  27  1   
 17   9  13  ar  
 18   9  28  1   
 19  10  14  1   
 20  10  29  1   
 21  10  30  1   
 22  11  14  1   
 23  11  31  1   
 24  11  32  1   
 25  12  15  ar  
 26  12  16  1   
 27  13  15  ar  
 28  13  33  1   
 29  14  34  1   
 30  14  35  1   
 31  15  17  1   
 32  16  36  1   
 33  16  37  1   
 34  16  38  1   
 35  17  18  1   
 36  18  19  1   
 37  18  39  1   
 38  18  40  1   
 39  19  20  2   
 40  19  21  1   
 41  21  22  1   
 42  22  41  1   
 43  22  42  1   
 44  22  43  1   
@<TRIPOS>SUBSTRUCTURE
  1 ****   9 GROUP 4 **** **** 0

# MOE 2024.06 (io_trps.svl 2023.06)
