@<TRIPOS>MOLECULE
3-Chloro-N-cyclohexyl-4-(2-oxo-2-pyrrolidin-1-yl-ethoxy)-benzenesulfonamide
51 53 1 0 0 
SMALL
USER_CHARGES


@<TRIPOS>ATOM
  1 CL       1.1760    -0.7280    -0.6780 Cl    1 <1>  -0.1770 
  2 C        0.7810    -1.9740     0.4850 C.ar  1 <1>   0.1770 
  3 C        1.7800    -2.5560     1.2550 C.ar  1 <1>   0.0830 
  4 C       -0.5380    -2.3640     0.6040 C.ar  1 <1>  -0.1500 
  5 O        3.0570    -2.1340     1.0860 O.3   1 <1>  -0.3630 
  6 C        1.4240    -3.5490     2.1620 C.ar  1 <1>  -0.1500 
  7 C       -0.9020    -3.3600     1.5020 C.ar  1 <1>  -0.0090 
  8 C        4.1560    -2.9370     1.4930 C.3   1 <1>   0.1810 
  9 C        0.1000    -3.9380     2.2770 C.ar  1 <1>  -0.1500 
 10 S       -2.6320    -3.8720     1.6640 S.o2  1 <1>   1.4470 
 11 C        5.4870    -2.3890     0.9830 C.2   1 <1>   0.5690 
 12 O       -2.7090    -5.1650     2.3000 O.2   1 <1>  -0.6500 
 13 O       -3.4200    -2.7660     2.1570 O.2   1 <1>  -0.6500 
 14 N       -3.0800    -4.1920     0.0820 N.am  1 <1>  -0.9140 
 15 O        6.3790    -2.2610     1.7900 O.2   1 <1>  -0.5700 
 16 N        5.6800    -2.0970    -0.3430 N.am  1 <1>  -0.6600 
 17 C       -4.4800    -3.9630    -0.1940 C.3   1 <1>   0.2760 
 18 C        4.6600    -2.1550    -1.4130 C.3   1 <1>   0.1400 
 19 C        6.9620    -1.5740    -0.8600 C.3   1 <1>   0.1400 
 20 C       -4.9400    -5.0230    -1.2020 C.3   1 <1>  -0.1600 
 21 C       -4.6620    -2.5540    -0.7750 C.3   1 <1>  -0.1600 
 22 C        5.4410    -1.9330    -2.7020 C.3   1 <1>  -0.1600 
 23 C        6.6510    -1.1050    -2.2770 C.3   1 <1>  -0.1600 
 24 C       -6.3970    -4.7910    -1.6310 C.3   1 <1>  -0.1600 
 25 C       -6.1150    -2.3090    -1.2060 C.3   1 <1>  -0.1600 
 26 C       -6.5880    -3.3790    -2.2000 C.3   1 <1>  -0.1600 
 27 H       -1.2870    -1.8910    -0.0080 H     1 <1>   0.1500 
 28 H        2.1570    -4.0210     2.7900 H     1 <1>   0.1500 
 29 H        4.0160    -3.9300     1.1090 H     1 <1>   0.0800 
 30 H        4.1750    -2.9590     2.5670 H     1 <1>   0.0800 
 31 H       -0.1640    -4.7080     2.9850 H     1 <1>   0.1500 
 32 H       -2.9490    -5.1990     0.0250 H     1 <1>   0.4200 
 33 H       -5.0700    -4.0680     0.7050 H     1 <1>   0.0800 
 34 H        3.9530    -1.3560    -1.2670 H     1 <1>   0.0800 
 35 H        4.1460    -3.1010    -1.4160 H     1 <1>   0.0800 
 36 H        7.6850    -2.3710    -0.8720 H     1 <1>   0.0800 
 37 H        7.3230    -0.7680    -0.2430 H     1 <1>   0.0800 
 38 H       -4.8600    -6.0010    -0.7610 H     1 <1>   0.0800 
 39 H       -4.3110    -4.9840    -2.0740 H     1 <1>   0.0800 
 40 H       -4.0180    -2.4350    -1.6290 H     1 <1>   0.0800 
 41 H       -4.3900    -1.8160    -0.0410 H     1 <1>   0.0800 
 42 H        4.8460    -1.4390    -3.4490 H     1 <1>   0.0800 
 43 H        5.7650    -2.8860    -3.0840 H     1 <1>   0.0800 
 44 H        7.4920    -1.2360    -2.9350 H     1 <1>   0.0800 
 45 H        6.3870    -0.0620    -2.2480 H     1 <1>   0.0800 
 46 H       -7.0460    -4.9230    -0.7820 H     1 <1>   0.0800 
 47 H       -6.6750    -5.5180    -2.3740 H     1 <1>   0.0800 
 48 H       -6.1980    -1.3350    -1.6570 H     1 <1>   0.0800 
 49 H       -6.7510    -2.3230    -0.3360 H     1 <1>   0.0800 
 50 H       -7.6270    -3.2200    -2.4330 H     1 <1>   0.0800 
 51 H       -6.0280    -3.2850    -3.1150 H     1 <1>   0.0800 
@<TRIPOS>BOND
  1   1   2  1   
  2   2   3  ar  
  3   2   4  ar  
  4   3   5  1   
  5   3   6  ar  
  6   4   7  ar  
  7   4  27  1   
  8   5   8  1   
  9   6   9  ar  
 10   6  28  1   
 11   7   9  ar  
 12   7  10  1   
 13   8  11  1   
 14   8  29  1   
 15   8  30  1   
 16   9  31  1   
 17  10  12  2   
 18  10  13  2   
 19  10  14  am  
 20  11  15  2   
 21  11  16  am  
 22  14  17  1   
 23  14  32  1   
 24  16  18  1   
 25  16  19  1   
 26  17  20  1   
 27  17  21  1   
 28  17  33  1   
 29  18  22  1   
 30  18  34  1   
 31  18  35  1   
 32  19  23  1   
 33  19  36  1   
 34  19  37  1   
 35  20  24  1   
 36  20  38  1   
 37  20  39  1   
 38  21  25  1   
 39  21  40  1   
 40  21  41  1   
 41  22  23  1   
 42  22  42  1   
 43  22  43  1   
 44  23  44  1   
 45  23  45  1   
 46  24  26  1   
 47  24  46  1   
 48  24  47  1   
 49  25  26  1   
 50  25  48  1   
 51  25  49  1   
 52  26  50  1   
 53  26  51  1   
@<TRIPOS>SUBSTRUCTURE
  1 ****   4 GROUP 4 **** **** 0

# MOE 2024.06 (io_trps.svl 2023.06)
