@<TRIPOS>MOLECULE
1-(4-Ethoxy-phenyl)-5-oxo-pyrrolidine-3-carboxylic acid (4-methoxy-phenyl)-amide
48 50 1 0 0 
SMALL
USER_CHARGES


@<TRIPOS>ATOM
  1 O        1.2020    -0.3590    -0.6840 O.2   1 <1>  -0.5700 
  2 C        2.2690    -0.8920    -0.5050 C.2   1 <1>   0.5690 
  3 N        2.5010    -2.2030    -0.2060 N.am  1 <1>  -0.4770 
  4 C        3.5540    -0.1200    -0.6110 C.3   1 <1>  -0.0990 
  5 C        1.5680    -3.2510    -0.0610 C.ar  1 <1>   0.1170 
  6 C        3.9520    -2.4530    -0.0760 C.3   1 <1>   0.1400 
  7 C        4.6150    -1.2260    -0.7200 C.3   1 <1>  -0.0190 
  8 C        0.4210    -3.3060    -0.8470 C.ar  1 <1>  -0.1500 
  9 C        1.7760    -4.2680     0.8680 C.ar  1 <1>  -0.1500 
 10 C        5.9630    -0.8610    -0.1130 C.2   1 <1>   0.5690 
 11 C       -0.4820    -4.3460    -0.7170 C.ar  1 <1>  -0.1500 
 12 C        0.8770    -5.3110     1.0030 C.ar  1 <1>  -0.1500 
 13 O        6.4630    -1.6140     0.6850 O.2   1 <1>  -0.5700 
 14 N        6.5530     0.3010    -0.5290 N.am  1 <1>  -0.5470 
 15 C       -0.2630    -5.3560     0.2050 C.ar  1 <1>   0.0830 
 16 C        7.7650     0.9030    -0.1470 C.ar  1 <1>   0.1170 
 17 O       -1.1970    -6.3410     0.2670 O.3   1 <1>  -0.3630 
 18 C        8.3830     0.6580     1.0750 C.ar  1 <1>  -0.1500 
 19 C        8.3680     1.8000    -1.0220 C.ar  1 <1>  -0.1500 
 20 C       -1.0820    -7.3910     1.1980 C.3   1 <1>   0.1200 
 21 C        9.5700     1.2860     1.4070 C.ar  1 <1>  -0.1500 
 22 C        9.5550     2.4320    -0.6950 C.ar  1 <1>  -0.1500 
 23 C       -2.2880    -8.3090     1.0250 C.3   1 <1>  -0.2400 
 24 C       10.1650     2.1760     0.5290 C.ar  1 <1>   0.0830 
 25 O       11.3290     2.7500     0.9330 O.3   1 <1>  -0.3620 
 26 C       12.0260     3.6470     0.0980 C.3   1 <1>   0.0400 
 27 H        3.6770     0.4600     0.2860 H     1 <1>   0.0800 
 28 H        3.5430     0.5230    -1.4720 H     1 <1>   0.0800 
 29 H        4.2350    -3.3620    -0.5770 H     1 <1>   0.0800 
 30 H        4.1960    -2.5230     0.9710 H     1 <1>   0.0800 
 31 H        4.7710    -1.4560    -1.7590 H     1 <1>   0.0800 
 32 H        0.2310    -2.5320    -1.5680 H     1 <1>   0.1500 
 33 H        2.6440    -4.2450     1.4990 H     1 <1>   0.1500 
 34 H       -1.3650    -4.3780    -1.3290 H     1 <1>   0.1500 
 35 H        1.0780    -6.0730     1.7310 H     1 <1>   0.1500 
 36 H        6.0590     0.8030    -1.2630 H     1 <1>   0.3700 
 37 H        7.9420    -0.0240     1.7790 H     1 <1>   0.1500 
 38 H        7.9120     2.0060    -1.9720 H     1 <1>   0.1500 
 39 H       -1.0660    -6.9680     2.1880 H     1 <1>   0.0800 
 40 H       -0.1680    -7.9230     1.0010 H     1 <1>   0.0800 
 41 H       10.0430     1.0890     2.3520 H     1 <1>   0.1500 
 42 H        9.9890     3.1160    -1.3990 H     1 <1>   0.1500 
 43 H       -3.1960    -7.7620     1.2060 H     1 <1>   0.0800 
 44 H       -2.2300    -9.1230     1.7240 H     1 <1>   0.0800 
 45 H       -2.3040    -8.7110     0.0280 H     1 <1>   0.0800 
 46 H       12.9140     3.9620     0.6150 H     1 <1>   0.0800 
 47 H       11.3980     4.4980    -0.1020 H     1 <1>   0.0800 
 48 H       12.2930     3.1400    -0.8130 H     1 <1>   0.0800 
@<TRIPOS>BOND
  1   1   2  2   
  2   2   3  am  
  3   2   4  1   
  4   3   5  1   
  5   3   6  1   
  6   4   7  1   
  7   4  27  1   
  8   4  28  1   
  9   5   8  ar  
 10   5   9  ar  
 11   6   7  1   
 12   6  29  1   
 13   6  30  1   
 14   7  10  1   
 15   7  31  1   
 16   8  11  ar  
 17   8  32  1   
 18   9  12  ar  
 19   9  33  1   
 20  10  13  2   
 21  10  14  am  
 22  11  15  ar  
 23  11  34  1   
 24  12  15  ar  
 25  12  35  1   
 26  14  16  1   
 27  14  36  1   
 28  15  17  1   
 29  16  18  ar  
 30  16  19  ar  
 31  17  20  1   
 32  18  21  ar  
 33  18  37  1   
 34  19  22  ar  
 35  19  38  1   
 36  20  23  1   
 37  20  39  1   
 38  20  40  1   
 39  21  24  ar  
 40  21  41  1   
 41  22  24  ar  
 42  22  42  1   
 43  23  43  1   
 44  23  44  1   
 45  23  45  1   
 46  24  25  1   
 47  25  26  1   
 48  26  46  1   
 49  26  47  1   
 50  26  48  1   
@<TRIPOS>SUBSTRUCTURE
  1 ****   7 GROUP 4 **** **** 0

# MOE 2024.06 (io_trps.svl 2023.06)
