@<TRIPOS>MOLECULE
Pentanoic acid (5-o-tolyl-[1,3,4]thiadiazol-2-yl)-amide
36 37 1 0 0 
SMALL
USER_CHARGES


@<TRIPOS>ATOM
  1 S        0.0410    -0.6130    -0.7180 S.3   1 <1>  -0.0800 
  2 C       -1.0640     0.3230     0.2290 C.2   1 <1>   0.4420 
  3 C        1.3060    -0.1330     0.3740 C.2   1 <1>   0.3250 
  4 N       -0.4850     0.8950     1.2190 N.2   1 <1>  -0.3380 
  5 N       -2.4020     0.4210    -0.0750 N.am  1 <1>  -0.4940 
  6 N        0.8480     0.6360     1.3000 N.2   1 <1>  -0.3380 
  7 C        2.6470    -0.6170     0.1340 C.ar  1 <1>   0.0530 
  8 C       -3.1570    -0.1520    -1.0570 C.2   1 <1>   0.5690 
  9 C        3.7880     0.1900     0.2710 C.ar  1 <1>  -0.1440 
 10 C        2.8420    -1.9460    -0.2520 C.ar  1 <1>  -0.1500 
 11 O       -2.7200    -0.9090    -1.8840 O.2   1 <1>  -0.5700 
 12 C       -4.6330     0.1960    -1.0970 C.3   1 <1>  -0.0990 
 13 C        5.0490    -0.3300     0.0320 C.ar  1 <1>  -0.1500 
 14 C        3.6820     1.6560     0.6770 C.3   1 <1>  -0.0970 
 15 C        4.1020    -2.4590    -0.4930 C.ar  1 <1>  -0.1500 
 16 C       -5.4190    -0.4600     0.0500 C.3   1 <1>  -0.1600 
 17 C        5.2110    -1.6490    -0.3500 C.ar  1 <1>  -0.1500 
 18 C       -6.9090    -0.1050    -0.0210 C.3   1 <1>  -0.1600 
 19 C       -7.6860    -0.7630     1.1220 C.3   1 <1>  -0.2400 
 20 H       -2.9070     1.0200     0.5710 H     1 <1>   0.3700 
 21 H        1.9940    -2.5980    -0.3620 H     1 <1>   0.1500 
 22 H       -5.0340    -0.1370    -2.0380 H     1 <1>   0.0800 
 23 H       -4.7420     1.2650    -1.0560 H     1 <1>   0.0800 
 24 H        5.9220     0.2890     0.1400 H     1 <1>   0.1500 
 25 H        2.9570     2.1620     0.0650 H     1 <1>   0.0800 
 26 H        4.6240     2.1610     0.5620 H     1 <1>   0.0800 
 27 H        3.3810     1.7310     1.7060 H     1 <1>   0.0800 
 28 H        4.2210    -3.4870    -0.7890 H     1 <1>   0.1500 
 29 H       -5.0220    -0.1390     0.9980 H     1 <1>   0.0800 
 30 H       -5.3030    -1.5300    -0.0130 H     1 <1>   0.0800 
 31 H        6.1960    -2.0420    -0.5340 H     1 <1>   0.1500 
 32 H       -7.3170    -0.4390    -0.9610 H     1 <1>   0.0800 
 33 H       -7.0340     0.9630     0.0360 H     1 <1>   0.0800 
 34 H       -7.5950    -1.8340     1.0730 H     1 <1>   0.0800 
 35 H       -8.7280    -0.5060     1.0540 H     1 <1>   0.0800 
 36 H       -7.3140    -0.4270     2.0750 H     1 <1>   0.0800 
@<TRIPOS>BOND
  1   1   2  1   
  2   1   3  1   
  3   2   4  2   
  4   2   5  1   
  5   3   6  2   
  6   3   7  1   
  7   4   6  1   
  8   5   8  am  
  9   5  20  1   
 10   7   9  ar  
 11   7  10  ar  
 12   8  11  2   
 13   8  12  1   
 14   9  13  ar  
 15   9  14  1   
 16  10  15  ar  
 17  10  21  1   
 18  12  16  1   
 19  12  22  1   
 20  12  23  1   
 21  13  17  ar  
 22  13  24  1   
 23  14  25  1   
 24  14  26  1   
 25  14  27  1   
 26  15  17  ar  
 27  15  28  1   
 28  16  18  1   
 29  16  29  1   
 30  16  30  1   
 31  17  31  1   
 32  18  19  1   
 33  18  32  1   
 34  18  33  1   
 35  19  34  1   
 36  19  35  1   
 37  19  36  1   
@<TRIPOS>SUBSTRUCTURE
  1 ****   1 GROUP 4 **** **** 0

# MOE 2024.06 (io_trps.svl 2023.06)
