@<TRIPOS>MOLECULE
N-Benzo[1,3]dioxol-5-yl-2-(4-phenyl-piperazin-1-yl)-acetamide
46 49 1 0 0 
SMALL
USER_CHARGES


@<TRIPOS>ATOM
  1 O       -0.5530    -0.8380    -3.1240 O.2   1 <1>  -0.5700 
  2 C       -0.0920    -1.1700    -2.0590 C.2   1 <1>   0.5690 
  3 N       -0.7610    -1.1160    -0.8700 N.am  1 <1>  -0.5470 
  4 C        1.3460    -1.6890    -2.0010 C.3   1 <1>   0.1710 
  5 C       -2.0610    -0.7240    -0.5090 C.ar  1 <1>   0.1170 
  6 N        1.9940    -1.5180    -0.6660 N.3   1 <1>  -0.8100 
  7 C       -2.3580    -0.6180     0.8490 C.ar  1 <1>  -0.1500 
  8 C       -3.0610    -0.4440    -1.4480 C.ar  1 <1>  -0.1500 
  9 C        2.3680    -0.0970    -0.4430 C.3   1 <1>   0.1100 
 10 C        3.2090    -2.3580    -0.5660 C.3   1 <1>   0.1100 
 11 C       -3.6310    -0.2370     1.2210 C.ar  1 <1>   0.0820 
 12 C       -4.3380    -0.0610    -1.0560 C.ar  1 <1>  -0.1500 
 13 C        3.0330     0.1290     0.9280 C.3   1 <1>   0.2090 
 14 C        3.9310    -2.2020     0.7900 C.3   1 <1>   0.2090 
 15 O       -4.1200    -0.0760     2.4560 O.3   1 <1>  -0.3630 
 16 C       -4.5950     0.0350     0.2960 C.ar  1 <1>   0.0820 
 17 N        4.2070    -0.7720     1.1200 N.pl3 1 <1>  -0.8380 
 18 C       -5.4820     0.3210     2.3070 C.3   1 <1>   0.4000 
 19 O       -5.7370     0.3800     0.9050 O.3   1 <1>  -0.3630 
 20 C        5.4840    -0.2300     0.9770 C.ar  1 <1>   0.1000 
 21 C        5.9530     0.6670     1.9290 C.ar  1 <1>  -0.1500 
 22 C        6.3110    -0.5470    -0.0960 C.ar  1 <1>  -0.1500 
 23 C        7.2100     1.2340     1.8170 C.ar  1 <1>  -0.1500 
 24 C        7.5700     0.0160    -0.2130 C.ar  1 <1>  -0.1500 
 25 C        8.0210     0.9090     0.7440 C.ar  1 <1>  -0.1500 
 26 H       -0.1400    -1.3770    -0.0960 H     1 <1>   0.3700 
 27 H        1.9260    -1.1950    -2.7610 H     1 <1>   0.0800 
 28 H        1.3080    -2.7360    -2.2460 H     1 <1>   0.0800 
 29 H       -1.6220    -0.8250     1.6010 H     1 <1>   0.1500 
 30 H       -2.8510    -0.5260    -2.4980 H     1 <1>   0.1500 
 31 H        1.4920     0.5260    -0.5030 H     1 <1>   0.0800 
 32 H        3.0540     0.2260    -1.2080 H     1 <1>   0.0800 
 33 H        3.8940    -2.0980    -1.3540 H     1 <1>   0.0800 
 34 H        2.9390    -3.3920    -0.6890 H     1 <1>   0.0800 
 35 H       -5.1080     0.1550    -1.7740 H     1 <1>   0.1500 
 36 H        2.3160    -0.0580     1.7070 H     1 <1>   0.0800 
 37 H        3.3480     1.1550     1.0040 H     1 <1>   0.0800 
 38 H        4.8540    -2.7540     0.7760 H     1 <1>   0.0800 
 39 H        3.3130    -2.6210     1.5650 H     1 <1>   0.0800 
 40 H       -5.6230     1.2950     2.7400 H     1 <1>   0.0800 
 41 H       -6.1230    -0.4140     2.7590 H     1 <1>   0.0800 
 42 H        5.3230     0.9090     2.7630 H     1 <1>   0.1500 
 43 H        5.9680    -1.2310    -0.8460 H     1 <1>   0.1500 
 44 H        7.5570     1.9250     2.5650 H     1 <1>   0.1500 
 45 H        8.1990    -0.2380    -1.0480 H     1 <1>   0.1500 
 46 H        8.9990     1.3480     0.6550 H     1 <1>   0.1500 
@<TRIPOS>BOND
  1   1   2  2   
  2   2   3  am  
  3   2   4  1   
  4   3   5  1   
  5   3  26  1   
  6   4   6  1   
  7   4  27  1   
  8   4  28  1   
  9   5   7  ar  
 10   5   8  ar  
 11   6   9  1   
 12   6  10  1   
 13   7  11  ar  
 14   7  29  1   
 15   8  12  ar  
 16   8  30  1   
 17   9  13  1   
 18   9  31  1   
 19   9  32  1   
 20  10  14  1   
 21  10  33  1   
 22  10  34  1   
 23  11  15  1   
 24  11  16  ar  
 25  12  16  ar  
 26  12  35  1   
 27  13  17  1   
 28  13  36  1   
 29  13  37  1   
 30  14  17  1   
 31  14  38  1   
 32  14  39  1   
 33  15  18  1   
 34  16  19  1   
 35  17  20  1   
 36  18  19  1   
 37  18  40  1   
 38  18  41  1   
 39  20  21  ar  
 40  20  22  ar  
 41  21  23  ar  
 42  21  42  1   
 43  22  24  ar  
 44  22  43  1   
 45  23  25  ar  
 46  23  44  1   
 47  24  25  ar  
 48  24  45  1   
 49  25  46  1   
@<TRIPOS>SUBSTRUCTURE
  1 ****   9 GROUP 4 **** **** 0

# MOE 2024.06 (io_trps.svl 2023.06)
