@<TRIPOS>MOLECULE
2-(4-Methyl-benzylamino)-5-propyl-4H-[1,2,4]triazolo[1,5-a]pyrimidin-7-one
41 43 1 0 0 
SMALL
USER_CHARGES


@<TRIPOS>ATOM
  1 O       -0.2150    -0.2020    -1.0460 O.2   1 <1>  -0.5700 
  2 C       -0.5370    -1.3560    -0.7930 C.2   1 <1>   0.5650 
  3 N       -1.8210    -1.8700    -1.0840 N.pl3 1 <1>   0.5610 
  4 C        0.3890    -2.2480    -0.1750 C.2   1 <1>  -0.1360 
  5 N       -2.9290    -1.3270    -1.6470 N.2   1 <1>  -0.7070 
  6 C       -2.1290    -3.1500    -0.7600 C.2   1 <1>   0.2700 
  7 C        0.0660    -3.5340     0.1380 C.2   1 <1>  -0.0380 
  8 C       -3.7530    -2.3120    -1.6130 C.2   1 <1>   0.5990 
  9 N       -3.3310    -3.4590    -1.0720 N.2   1 <1>  -0.5650 
 10 N       -1.2020    -3.9840    -0.1550 N.pl3 1 <1>  -0.5840 
 11 C        0.9880    -4.5560     0.7970 C.3   1 <1>  -0.0220 
 12 N       -5.0280    -2.2550    -2.0900 N.pl3 1 <1>  -0.8520 
 13 C        2.3960    -4.0330     1.1160 C.3   1 <1>  -0.1600 
 14 C       -5.8060    -1.0580    -1.7260 C.3   1 <1>   0.3530 
 15 C        3.2580    -5.1150     1.7740 C.3   1 <1>  -0.2400 
 16 C       -6.9140    -1.4960    -0.7860 C.ar  1 <1>  -0.1430 
 17 C       -8.2050    -1.6880    -1.2540 C.ar  1 <1>  -0.1500 
 18 C       -6.6390    -1.7160     0.5540 C.ar  1 <1>  -0.1500 
 19 C       -9.2090    -2.0900    -0.3890 C.ar  1 <1>  -0.1500 
 20 C       -7.6430    -2.1180     1.4180 C.ar  1 <1>  -0.1500 
 21 C       -8.9330    -2.3080     0.9510 C.ar  1 <1>  -0.1430 
 22 C      -10.0330    -2.7470     1.8990 C.3   1 <1>  -0.0970 
 23 H        1.3560    -1.8280     0.0240 H     1 <1>   0.1500 
 24 H       -1.5140    -4.9410     0.0480 H     1 <1>   0.4000 
 25 H        1.0750    -5.4070     0.1440 H     1 <1>   0.0800 
 26 H        0.5280    -4.8900     1.7110 H     1 <1>   0.0800 
 27 H       -5.5200    -3.0770    -1.7370 H     1 <1>   0.4000 
 28 H        2.3260    -3.1900     1.7830 H     1 <1>   0.0800 
 29 H        2.8760    -3.7100     0.2080 H     1 <1>   0.0800 
 30 H       -6.2190    -0.6220    -2.6190 H     1 <1>   0.0800 
 31 H       -5.1920    -0.3160    -1.2450 H     1 <1>   0.0800 
 32 H        2.8150    -5.4430     2.6990 H     1 <1>   0.0800 
 33 H        4.2380    -4.7250     1.9880 H     1 <1>   0.0800 
 34 H        3.3650    -5.9640     1.1210 H     1 <1>   0.0800 
 35 H       -8.4340    -1.5290    -2.2930 H     1 <1>   0.1500 
 36 H       -5.6400    -1.5770     0.9290 H     1 <1>   0.1500 
 37 H      -10.2060    -2.2340    -0.7650 H     1 <1>   0.1500 
 38 H       -7.4140    -2.2830     2.4560 H     1 <1>   0.1500 
 39 H       -9.6300    -3.3630     2.6830 H     1 <1>   0.0800 
 40 H      -10.7790    -3.3160     1.3730 H     1 <1>   0.0800 
 41 H      -10.5000    -1.8840     2.3390 H     1 <1>   0.0800 
@<TRIPOS>BOND
  1   1   2  2   
  2   2   3  1   
  3   2   4  1   
  4   3   5  1   
  5   3   6  1   
  6   4   7  2   
  7   4  23  1   
  8   5   8  2   
  9   6   9  2   
 10   6  10  1   
 11   7  10  1   
 12   7  11  1   
 13   8   9  1   
 14   8  12  1   
 15  10  24  1   
 16  11  13  1   
 17  11  25  1   
 18  11  26  1   
 19  12  14  1   
 20  12  27  1   
 21  13  15  1   
 22  13  28  1   
 23  13  29  1   
 24  14  16  1   
 25  14  30  1   
 26  14  31  1   
 27  15  32  1   
 28  15  33  1   
 29  15  34  1   
 30  16  17  ar  
 31  16  18  ar  
 32  17  19  ar  
 33  17  35  1   
 34  18  20  ar  
 35  18  36  1   
 36  19  21  ar  
 37  19  37  1   
 38  20  21  ar  
 39  20  38  1   
 40  21  22  1   
 41  22  39  1   
 42  22  40  1   
 43  22  41  1   
@<TRIPOS>SUBSTRUCTURE
  1 ****   9 GROUP 4 **** **** 0

# MOE 2024.06 (io_trps.svl 2023.06)
