@<TRIPOS>MOLECULE
4-Allyl-5-(2-ethoxy-4-methyl-phenoxymethyl)-4H-[1,2,4]triazole-3-thiol
40 41 1 0 0 
SMALL
USER_CHARGES


@<TRIPOS>ATOM
  1 S       -1.3010     0.0050     0.5010 S.3   1 <1>  -0.9360 
  2 C       -0.9410     1.5770     0.6740 C.cat 1 <1>   0.7360 
  3 N        0.2070     2.0420     1.1150 N.pl3 1 <1>  -0.3930 
  4 N       -1.7280     2.5970     0.4100 N.pl3 1 <1>  -0.7640 
  5 N        0.1910     3.4090     1.1540 N.2   1 <1>  -0.2600 
  6 C       -0.9850     3.7120     0.7280 C.2   1 <1>   0.4850 
  7 C       -3.1100     2.4990    -0.0750 C.3   1 <1>   0.4920 
  8 C       -1.5060     5.1360     0.5770 C.3   1 <1>   0.2880 
  9 C       -3.1660     3.0750    -1.4780 C.2   1 <1>  -0.2880 
 10 O       -2.6430     5.3290     1.4010 O.3   1 <1>  -0.3620 
 11 C       -3.8790     4.1370    -1.8710 C.2   1 <1>  -0.3000 
 12 C       -3.5970     6.2450     1.0760 C.ar  1 <1>   0.0820 
 13 C       -3.3750     7.4370     0.3660 C.ar  1 <1>   0.0820 
 14 C       -4.8780     5.9300     1.4960 C.ar  1 <1>  -0.1500 
 15 O       -2.1060     7.7750    -0.0050 O.3   1 <1>  -0.3630 
 16 C       -4.4620     8.2570     0.0710 C.ar  1 <1>  -0.1500 
 17 C       -5.9450     6.7580     1.2010 C.ar  1 <1>  -0.1500 
 18 C       -1.7830     9.0680    -0.4630 C.3   1 <1>   0.1200 
 19 C       -5.7420     7.9230     0.4840 C.ar  1 <1>  -0.1430 
 20 C       -0.2690     9.1400    -0.6300 C.3   1 <1>  -0.2400 
 21 C       -6.9120     8.8320     0.1510 C.3   1 <1>  -0.0970 
 22 H        0.9610     1.4110     1.3830 H     1 <1>   0.4500 
 23 H       -3.7600     3.0460     0.5850 H     1 <1>   0.0800 
 24 H       -3.4350     1.4720    -0.0900 H     1 <1>   0.0800 
 25 H       -1.7820     5.3080    -0.4470 H     1 <1>   0.0800 
 26 H       -0.7530     5.8420     0.8750 H     1 <1>   0.0800 
 27 H       -2.5450     2.5100    -2.1530 H     1 <1>   0.1500 
 28 H       -3.8900     4.5100    -2.8820 H     1 <1>   0.1500 
 29 H       -4.5120     4.7250    -1.2260 H     1 <1>   0.1500 
 30 H       -5.0410     5.0280     2.0580 H     1 <1>   0.1500 
 31 H       -4.3350     9.1670    -0.4830 H     1 <1>   0.1500 
 32 H       -6.9330     6.4890     1.5340 H     1 <1>   0.1500 
 33 H       -2.1200     9.7850     0.2670 H     1 <1>   0.0800 
 34 H       -2.2760     9.2320    -1.4060 H     1 <1>   0.0800 
 35 H        0.2170     8.9630     0.3130 H     1 <1>   0.0800 
 36 H        0.0120    10.1170    -0.9800 H     1 <1>   0.0800 
 37 H        0.0610     8.4120    -1.3490 H     1 <1>   0.0800 
 38 H       -6.6160     9.8640     0.2170 H     1 <1>   0.0800 
 39 H       -7.7260     8.6710     0.8360 H     1 <1>   0.0800 
 40 H       -7.2570     8.6320    -0.8480 H     1 <1>   0.0800 
@<TRIPOS>BOND
  1   1   2  1   
  2   2   3  ar  
  3   2   4  ar  
  4   3   5  1   
  5   3  22  1   
  6   4   6  1   
  7   4   7  1   
  8   5   6  2   
  9   6   8  1   
 10   7   9  1   
 11   7  23  1   
 12   7  24  1   
 13   8  10  1   
 14   8  25  1   
 15   8  26  1   
 16   9  11  2   
 17   9  27  1   
 18  10  12  1   
 19  11  28  1   
 20  11  29  1   
 21  12  13  ar  
 22  12  14  ar  
 23  13  15  1   
 24  13  16  ar  
 25  14  17  ar  
 26  14  30  1   
 27  15  18  1   
 28  16  19  ar  
 29  16  31  1   
 30  17  19  ar  
 31  17  32  1   
 32  18  20  1   
 33  18  33  1   
 34  18  34  1   
 35  19  21  1   
 36  20  35  1   
 37  20  36  1   
 38  20  37  1   
 39  21  38  1   
 40  21  39  1   
 41  21  40  1   
@<TRIPOS>SUBSTRUCTURE
  1 ****  10 GROUP 4 **** **** 0

# MOE 2024.06 (io_trps.svl 2023.06)
