@<TRIPOS>MOLECULE
4-(4-Chloro-phenyl)-6-(4-methyl-piperazin-1-ylmethyl)-2-oxo-1,2,3,4-tetrahydro-p
50 52 1 0 0 
SMALL
USER_CHARGES


@<TRIPOS>ATOM
  1 CL      -0.8000    -0.2230    -2.0130 Cl    1 <1>  -0.1770 
  2 C       -2.1550    -0.9260    -1.1670 C.ar  1 <1>   0.1770 
  3 C       -3.1300    -1.5910    -1.8840 C.ar  1 <1>  -0.1500 
  4 C       -2.2330    -0.8070     0.2070 C.ar  1 <1>  -0.1500 
  5 C       -4.2040    -2.1470    -1.2110 C.ar  1 <1>  -0.1500 
  6 C       -3.3100    -1.3650     0.8750 C.ar  1 <1>  -0.1500 
  7 C       -4.3020    -2.0410     0.1730 C.ar  1 <1>  -0.1430 
  8 C       -5.4890    -2.6460     0.9230 C.3   1 <1>   0.5020 
  9 N       -5.5850    -4.0740     0.5540 N.am  1 <1>  -0.7300 
 10 C       -6.7750    -1.8720     0.6140 C.2   1 <1>  -0.1240 
 11 C       -6.5560    -4.5760    -0.2240 C.2   1 <1>   0.6900 
 12 C       -7.7570    -2.4710    -0.1180 C.2   1 <1>  -0.0290 
 13 C       -6.7490    -0.5520     1.1610 C.2   1 <1>   0.7060 
 14 O       -6.5270    -5.7210    -0.6060 O.2   1 <1>  -0.5700 
 15 N       -7.5840    -3.7660    -0.5670 N.am  1 <1>  -0.5390 
 16 C       -9.1050    -1.8510    -0.5060 C.3   1 <1>   0.2480 
 17 O       -6.0660    -0.2450     2.1190 O.2   1 <1>  -0.5700 
 18 O       -7.5110     0.3920     0.5960 O.3   1 <1>  -0.4300 
 19 N      -10.1990    -2.8520    -0.4350 N.3   1 <1>  -0.8100 
 20 C       -7.4900     1.7330     1.0500 C.3   1 <1>   0.0400 
 21 C      -10.4570    -3.2890     0.9630 C.3   1 <1>   0.1100 
 22 C      -11.4460    -2.3330    -1.0460 C.3   1 <1>   0.1100 
 23 C      -11.5780    -4.3550     1.0540 C.3   1 <1>   0.3430 
 24 C      -12.6290    -3.3300    -0.9350 C.3   1 <1>   0.3430 
 25 N      -12.2030    -4.6160    -0.2870 N.4   1 <1>  -0.9590 
 26 C      -13.2830    -5.6440    -0.2430 C.3   1 <1>   0.2630 
 27 H       -3.0470    -1.6710    -2.9530 H     1 <1>   0.1500 
 28 H       -1.4630    -0.2810     0.7420 H     1 <1>   0.1500 
 29 H       -4.9650    -2.6650    -1.7710 H     1 <1>   0.1500 
 30 H       -3.3720    -1.2610     1.9460 H     1 <1>   0.1500 
 31 H       -5.3020    -2.6040     1.9830 H     1 <1>   0.0800 
 32 H       -4.7370    -4.6300     0.6520 H     1 <1>   0.3700 
 33 H       -8.3240    -4.2110    -1.1110 H     1 <1>   0.3700 
 34 H       -9.0220    -1.4890    -1.5170 H     1 <1>   0.0800 
 35 H       -9.3500    -1.0180     0.1280 H     1 <1>   0.0800 
 36 H       -8.1670     2.3100     0.4460 H     1 <1>   0.0800 
 37 H       -6.4890     2.1170     0.9530 H     1 <1>   0.0800 
 38 H       -7.7980     1.7590     2.0810 H     1 <1>   0.0800 
 39 H      -10.7310    -2.4400     1.5670 H     1 <1>   0.0800 
 40 H       -9.5600    -3.7060     1.3890 H     1 <1>   0.0800 
 41 H      -11.2680    -2.1240    -2.0880 H     1 <1>   0.0800 
 42 H      -11.7270    -1.4050    -0.5770 H     1 <1>   0.0800 
 43 H      -12.3270    -4.0200     1.7520 H     1 <1>   0.0800 
 44 H      -11.1560    -5.2680     1.4410 H     1 <1>   0.0800 
 45 H      -13.0140    -3.5260    -1.9220 H     1 <1>   0.0800 
 46 H      -13.4190    -2.8750    -0.3600 H     1 <1>   0.0800 
 47 H      -11.4150    -4.9440    -0.8690 H     1 <1>   0.4500 
 48 H      -14.1030    -5.3010     0.3660 H     1 <1>   0.0800 
 49 H      -12.9060    -6.5650     0.1720 H     1 <1>   0.0800 
 50 H      -13.6500    -5.8420    -1.2370 H     1 <1>   0.0800 
@<TRIPOS>BOND
  1   1   2  1   
  2   2   3  ar  
  3   2   4  ar  
  4   3   5  ar  
  5   3  27  1   
  6   4   6  ar  
  7   4  28  1   
  8   5   7  ar  
  9   5  29  1   
 10   6   7  ar  
 11   6  30  1   
 12   7   8  1   
 13   8   9  1   
 14   8  10  1   
 15   8  31  1   
 16   9  11  am  
 17   9  32  1   
 18  10  12  2   
 19  10  13  1   
 20  11  14  2   
 21  11  15  am  
 22  12  15  1   
 23  12  16  1   
 24  13  17  2   
 25  13  18  1   
 26  15  33  1   
 27  16  19  1   
 28  16  34  1   
 29  16  35  1   
 30  18  20  1   
 31  19  21  1   
 32  19  22  1   
 33  20  36  1   
 34  20  37  1   
 35  20  38  1   
 36  21  23  1   
 37  21  39  1   
 38  21  40  1   
 39  22  24  1   
 40  22  41  1   
 41  22  42  1   
 42  23  25  1   
 43  23  43  1   
 44  23  44  1   
 45  24  25  1   
 46  24  45  1   
 47  24  46  1   
 48  25  26  1   
 49  25  47  1   
 50  26  48  1   
 51  26  49  1   
 52  26  50  1   
@<TRIPOS>SUBSTRUCTURE
  1 ****  12 GROUP 4 **** **** 0

# MOE 2024.06 (io_trps.svl 2023.06)
