@<TRIPOS>MOLECULE
5-Fluoro-2-methyl-4-pyrrolidin-1-yl-benzaldehyde
29 30 1 0 0 
SMALL
USER_CHARGES


@<TRIPOS>ATOM
  1 F        0.0570     0.3300     0.4130 F     1 <1>  -0.1900 
  2 C       -0.0220     1.6280     0.2440 C.ar  1 <1>   0.1900 
  3 C       -1.2560     2.2430    -0.0240 C.ar  1 <1>   0.1000 
  4 C        1.1600     2.3240     0.3520 C.ar  1 <1>  -0.1500 
  5 N       -2.4960     1.5910    -0.1470 N.pl3 1 <1>  -0.8380 
  6 C       -1.1990     3.6270    -0.1910 C.ar  1 <1>  -0.1500 
  7 C        1.1960     3.7100     0.1920 C.ar  1 <1>   0.0860 
  8 C       -3.7870     2.2340     0.2030 C.3   1 <1>   0.2090 
  9 C       -2.6670     0.1210    -0.2430 C.3   1 <1>   0.2090 
 10 C       -0.0220     4.3520    -0.0870 C.ar  1 <1>  -0.1430 
 11 C        2.4490     4.4110     0.3140 C.2   1 <1>   0.4240 
 12 C       -4.7500     1.0830     0.4680 C.3   1 <1>  -0.1600 
 13 C       -4.1730    -0.0880    -0.3190 C.3   1 <1>  -0.1600 
 14 C       -0.0900     5.8620    -0.2890 C.3   1 <1>  -0.0960 
 15 O        3.5150     3.8990     0.5530 O.2   1 <1>  -0.5700 
 16 H        2.0690     1.7890     0.5620 H     1 <1>   0.1500 
 17 H       -2.1110     4.1430    -0.4210 H     1 <1>   0.1500 
 18 H       -4.1270     2.8160    -0.6370 H     1 <1>   0.0800 
 19 H       -3.6820     2.8660     1.0690 H     1 <1>   0.0800 
 20 H       -2.2820    -0.3440     0.6480 H     1 <1>   0.0800 
 21 H       -2.1630    -0.2700    -1.1110 H     1 <1>   0.0800 
 22 H        2.4420     5.4770     0.1820 H     1 <1>   0.0600 
 23 H       -5.7540     1.3250     0.1700 H     1 <1>   0.0800 
 24 H       -4.7390     0.8570     1.5200 H     1 <1>   0.0800 
 25 H       -4.4650    -1.0410     0.0830 H     1 <1>   0.0800 
 26 H       -4.4800    -0.0270    -1.3480 H     1 <1>   0.0800 
 27 H       -1.0960     6.1820    -0.4960 H     1 <1>   0.0800 
 28 H        0.5280     6.1550    -1.1190 H     1 <1>   0.0800 
 29 H        0.2440     6.3720     0.5980 H     1 <1>   0.0800 
@<TRIPOS>BOND
  1   1   2  1   
  2   2   3  ar  
  3   2   4  ar  
  4   3   5  1   
  5   3   6  ar  
  6   4   7  ar  
  7   4  16  1   
  8   5   8  1   
  9   5   9  1   
 10   6  10  ar  
 11   6  17  1   
 12   7  10  ar  
 13   7  11  1   
 14   8  12  1   
 15   8  18  1   
 16   8  19  1   
 17   9  13  1   
 18   9  20  1   
 19   9  21  1   
 20  10  14  1   
 21  11  15  2   
 22  11  22  1   
 23  12  13  1   
 24  12  23  1   
 25  12  24  1   
 26  13  25  1   
 27  13  26  1   
 28  14  27  1   
 29  14  28  1   
 30  14  29  1   
@<TRIPOS>SUBSTRUCTURE
  1 ****   3 GROUP 4 **** **** 0

# MOE 2024.06 (io_trps.svl 2023.06)
