@<TRIPOS>MOLECULE
2-Morpholin-4-yl-succinic acid 1-(2-methoxy-ethyl) ester
36 36 1 0 0 
SMALL
USER_CHARGES


@<TRIPOS>ATOM
  1 O        0.2640     1.2720     1.0420 O.2   1 <1>  -0.5700 
  2 C        0.0020     1.8250    -0.0020 C.2   1 <1>   0.6590 
  3 O        0.8740     1.8210    -1.0110 O.3   1 <1>  -0.4300 
  4 C       -1.3170     2.5930    -0.2620 C.3   1 <1>   0.2510 
  5 C        2.1210     1.1560    -0.9440 C.3   1 <1>   0.1200 
  6 N       -1.2880     4.0250     0.2120 N.3   1 <1>  -0.8100 
  7 C       -2.5110     1.8220     0.3300 C.3   1 <1>  -0.2660 
  8 C        3.0900     1.9530    -0.0690 C.3   1 <1>   0.1200 
  9 C       -0.1550     4.7620    -0.3840 C.3   1 <1>   0.1100 
 10 C       -2.5450     4.7410    -0.1210 C.3   1 <1>   0.1100 
 11 C       -3.6700     1.8500    -0.6210 C.2   1 <1>   0.9060 
 12 O        4.3600     1.3970    -0.1990 O.3   1 <1>  -0.5600 
 13 C       -0.1570     6.2400     0.0430 C.3   1 <1>   0.1200 
 14 C       -2.4790     6.2330     0.2530 C.3   1 <1>   0.1200 
 15 O       -3.5080     1.3610    -1.7420 O.co2 1 <1>  -0.9000 
 16 O       -4.7310     2.3670    -0.2640 O.co2 1 <1>  -0.9000 
 17 C        5.3190     1.9900     0.6150 C.3   1 <1>   0.0400 
 18 O       -1.3590     6.8530    -0.3170 O.3   1 <1>  -0.5600 
 19 H       -1.4310     2.6040    -1.3340 H     1 <1>   0.0800 
 20 H        2.5020     1.0870    -1.9470 H     1 <1>   0.0800 
 21 H        1.9660     0.1690    -0.5440 H     1 <1>   0.0800 
 22 H       -2.7940     2.2120     1.2880 H     1 <1>   0.0800 
 23 H       -2.2610     0.7870     0.4510 H     1 <1>   0.0800 
 24 H        2.7910     1.8970     0.9650 H     1 <1>   0.0800 
 25 H        3.1330     2.9770    -0.3960 H     1 <1>   0.0800 
 26 H       -0.2030     4.7060    -1.4580 H     1 <1>   0.0800 
 27 H        0.7720     4.3230    -0.0630 H     1 <1>   0.0800 
 28 H       -3.3660     4.3120     0.4240 H     1 <1>   0.0800 
 29 H       -2.7620     4.6450    -1.1720 H     1 <1>   0.0800 
 30 H        0.6400     6.7700    -0.4460 H     1 <1>   0.0800 
 31 H       -0.0320     6.3220     1.1080 H     1 <1>   0.0800 
 32 H       -2.4260     6.3420     1.3220 H     1 <1>   0.0800 
 33 H       -3.3560     6.7390    -0.1050 H     1 <1>   0.0800 
 34 H        6.2590     1.4960     0.4400 H     1 <1>   0.0800 
 35 H        5.0340     1.8690     1.6460 H     1 <1>   0.0800 
 36 H        5.4050     3.0330     0.3640 H     1 <1>   0.0800 
@<TRIPOS>BOND
  1   1   2  2   
  2   2   3  1   
  3   2   4  1   
  4   3   5  1   
  5   4   6  1   
  6   4   7  1   
  7   4  19  1   
  8   5   8  1   
  9   5  20  1   
 10   5  21  1   
 11   6   9  1   
 12   6  10  1   
 13   7  11  1   
 14   7  22  1   
 15   7  23  1   
 16   8  12  1   
 17   8  24  1   
 18   8  25  1   
 19   9  13  1   
 20   9  26  1   
 21   9  27  1   
 22  10  14  1   
 23  10  28  1   
 24  10  29  1   
 25  11  15  ar  
 26  11  16  ar  
 27  12  17  1   
 28  13  18  1   
 29  13  30  1   
 30  13  31  1   
 31  14  18  1   
 32  14  32  1   
 33  14  33  1   
 34  17  34  1   
 35  17  35  1   
 36  17  36  1   
@<TRIPOS>SUBSTRUCTURE
  1 ****   4 GROUP 4 **** **** 0

# MOE 2024.06 (io_trps.svl 2023.06)
