@<TRIPOS>MOLECULE
Methyl-(5-methyl-furan-2-ylmethyl)-amine
21 21 1 0 0 
SMALL
USER_CHARGES


@<TRIPOS>ATOM
  1 O        0.2300     0.2340     0.4200 O.3   1 <1>  -0.2800 
  2 C        1.1890     1.0950     0.1340 C.2   1 <1>  -0.0400 
  3 C       -0.9220     0.8250     0.1760 C.2   1 <1>  -0.0400 
  4 C        0.6650     2.2590    -0.3070 C.2   1 <1>  -0.1500 
  5 C        2.6190     0.6470     0.3260 C.3   1 <1>   0.5230 
  6 C       -0.7230     2.0800    -0.2780 C.2   1 <1>  -0.1500 
  7 C       -2.2060     0.0630     0.4270 C.3   1 <1>  -0.0600 
  8 N        2.7510    -0.6470    -0.3810 N.4   1 <1>  -0.9060 
  9 C        4.0360    -1.3580    -0.1300 C.3   1 <1>   0.2630 
 10 H        1.1570     3.1640    -0.6250 H     1 <1>   0.1500 
 11 H        2.8110     0.5190     1.3780 H     1 <1>   0.0800 
 12 H        3.3010     1.3790    -0.0750 H     1 <1>   0.0800 
 13 H       -1.4550     2.8160    -0.5640 H     1 <1>   0.1500 
 14 H       -2.2650    -0.2220     1.4620 H     1 <1>   0.0800 
 15 H       -2.2340    -0.8220    -0.1820 H     1 <1>   0.0800 
 16 H       -3.0550     0.6760     0.1880 H     1 <1>   0.0800 
 17 H        2.5910    -0.4810    -1.3820 H     1 <1>   0.4500 
 18 H        1.9400    -1.2050    -0.0690 H     1 <1>   0.4500 
 19 H        4.8680    -0.7630    -0.4710 H     1 <1>   0.0800 
 20 H        4.0500    -2.2990    -0.6560 H     1 <1>   0.0800 
 21 H        4.1580    -1.5540     0.9240 H     1 <1>   0.0800 
@<TRIPOS>BOND
  1   1   2  1   
  2   1   3  1   
  3   2   4  2   
  4   2   5  1   
  5   3   6  2   
  6   3   7  1   
  7   4   6  1   
  8   4  10  1   
  9   5   8  1   
 10   5  11  1   
 11   5  12  1   
 12   6  13  1   
 13   7  14  1   
 14   7  15  1   
 15   7  16  1   
 16   8   9  1   
 17   8  17  1   
 18   8  18  1   
 19   9  19  1   
 20   9  20  1   
 21   9  21  1   
@<TRIPOS>SUBSTRUCTURE
  1 ****   2 GROUP 4 **** **** 0

# MOE 2024.06 (io_trps.svl 2023.06)
