@<TRIPOS>MOLECULE
N-Isopropyl-3-(3-o-tolyl-[1,2,4]oxadiazol-5-yl)-propionamide
39 40 1 0 0 
SMALL
USER_CHARGES


@<TRIPOS>ATOM
  1 O        0.2950    -0.5670    -1.1550 O.2   1 <1>  -0.5700 
  2 C        0.7430    -1.6260    -0.7940 C.2   1 <1>   0.5690 
  3 N        2.0130    -1.6890    -0.3360 N.am  1 <1>  -0.7300 
  4 C       -0.1190    -2.8740    -0.8600 C.3   1 <1>  -0.0990 
  5 C        2.7870    -2.8500     0.1180 C.3   1 <1>   0.2200 
  6 C       -1.5900    -2.5740    -1.1900 C.3   1 <1>   0.0200 
  7 C        2.9550    -2.7480     1.6290 C.3   1 <1>  -0.2400 
  8 C        4.1350    -2.8260    -0.5930 C.3   1 <1>  -0.2400 
  9 C       -2.4050    -3.8500    -1.2210 C.2   1 <1>   0.2980 
 10 O       -2.2390    -4.6780    -2.2190 O.3   1 <1>  -0.0190 
 11 N       -3.2490    -4.2100    -0.3470 N.2   1 <1>  -0.5650 
 12 N       -3.0460    -5.6560    -1.9540 N.2   1 <1>  -0.4100 
 13 C       -3.6500    -5.3810    -0.8520 C.2   1 <1>   0.4620 
 14 C       -4.6260    -6.2390    -0.2010 C.ar  1 <1>   0.0540 
 15 C       -5.8550    -5.7850     0.3030 C.ar  1 <1>  -0.1440 
 16 C       -4.3340    -7.5970    -0.0660 C.ar  1 <1>  -0.1500 
 17 C       -6.7250    -6.6670     0.9240 C.ar  1 <1>  -0.1500 
 18 C       -6.2770    -4.3260     0.1790 C.3   1 <1>  -0.0970 
 19 C       -5.2060    -8.4730     0.5510 C.ar  1 <1>  -0.1500 
 20 C       -6.4060    -8.0060     1.0500 C.ar  1 <1>  -0.1500 
 21 H        2.5110    -0.7980    -0.3100 H     1 <1>   0.3700 
 22 H       -0.0740    -3.3730     0.0900 H     1 <1>   0.0800 
 23 H        0.2890    -3.5270    -1.6100 H     1 <1>   0.0800 
 24 H        2.2730    -3.7640    -0.1270 H     1 <1>   0.0800 
 25 H       -1.6650    -2.0840    -2.1440 H     1 <1>   0.0800 
 26 H       -1.9980    -1.9150    -0.4440 H     1 <1>   0.0800 
 27 H        3.4730    -1.8440     1.8950 H     1 <1>   0.0800 
 28 H        3.5230    -3.5860     1.9920 H     1 <1>   0.0800 
 29 H        1.9930    -2.7590     2.1100 H     1 <1>   0.0800 
 30 H        4.6760    -1.9280    -0.3570 H     1 <1>   0.0800 
 31 H        3.9910    -2.8850    -1.6580 H     1 <1>   0.0800 
 32 H        4.7250    -3.6710    -0.2870 H     1 <1>   0.0800 
 33 H       -3.4010    -7.9690    -0.4530 H     1 <1>   0.1500 
 34 H       -7.6640    -6.3170     1.3150 H     1 <1>   0.1500 
 35 H       -6.0990    -3.9690    -0.8200 H     1 <1>   0.0800 
 36 H       -5.7140    -3.7230     0.8680 H     1 <1>   0.0800 
 37 H       -7.3230    -4.2050     0.3950 H     1 <1>   0.0800 
 38 H       -4.9520    -9.5150     0.6420 H     1 <1>   0.1500 
 39 H       -7.0900    -8.6820     1.5340 H     1 <1>   0.1500 
@<TRIPOS>BOND
  1   1   2  2   
  2   2   3  am  
  3   2   4  1   
  4   3   5  1   
  5   3  21  1   
  6   4   6  1   
  7   4  22  1   
  8   4  23  1   
  9   5   7  1   
 10   5   8  1   
 11   5  24  1   
 12   6   9  1   
 13   6  25  1   
 14   6  26  1   
 15   7  27  1   
 16   7  28  1   
 17   7  29  1   
 18   8  30  1   
 19   8  31  1   
 20   8  32  1   
 21   9  10  1   
 22   9  11  2   
 23  10  12  1   
 24  11  13  1   
 25  12  13  2   
 26  13  14  1   
 27  14  15  ar  
 28  14  16  ar  
 29  15  17  ar  
 30  15  18  1   
 31  16  19  ar  
 32  16  33  1   
 33  17  20  ar  
 34  17  34  1   
 35  18  35  1   
 36  18  36  1   
 37  18  37  1   
 38  19  20  ar  
 39  19  38  1   
 40  20  39  1   
@<TRIPOS>SUBSTRUCTURE
  1 ****   9 GROUP 4 **** **** 0

# MOE 2024.06 (io_trps.svl 2023.06)
