@<TRIPOS>MOLECULE
N-Furan-2-ylmethyl-N-(2-hydroxy-6-methyl-quinolin-3-ylmethyl)-2,2-dimethyl-propi
50 52 1 0 0 
SMALL
USER_CHARGES


@<TRIPOS>ATOM
  1 O        1.0480    -0.2330     1.8060 O.2   1 <1>  -0.5700 
  2 C        1.7180    -0.4580     0.8220 C.2   1 <1>   0.5690 
  3 N        2.3000     0.6080     0.1660 N.am  1 <1>  -0.6600 
  4 C        1.8360    -1.9530     0.3700 C.3   1 <1>   0.0610 
  5 C        1.9650     2.0030     0.5760 C.3   1 <1>   0.2780 
  6 C        3.3480     0.5520    -0.8920 C.3   1 <1>   0.3200 
  7 C        1.0900    -2.8830     1.3600 C.3   1 <1>  -0.2400 
  8 C        1.1640    -2.1730    -1.0010 C.3   1 <1>  -0.2400 
  9 C        3.2910    -2.4690     0.3350 C.3   1 <1>  -0.2400 
 10 C        0.7630     2.4930    -0.2130 C.2   1 <1>  -0.1240 
 11 C        4.7390     0.5440    -0.2750 C.2   1 <1>  -0.0400 
 12 C        1.0010     3.2880    -1.3790 C.2   1 <1>   0.6160 
 13 C       -0.5070     2.1930     0.1650 C.2   1 <1>  -0.1780 
 14 O        5.7790     0.4940    -1.0850 O.3   1 <1>  -0.2800 
 15 C        5.1470     0.5730     1.0130 C.2   1 <1>  -0.1500 
 16 O        2.1100     3.6010    -1.7740 O.2   1 <1>  -0.5700 
 17 N       -0.0760     3.7250    -2.0880 N.am  1 <1>  -0.5470 
 18 C       -1.6300     2.6580    -0.5910 C.ar  1 <1>   0.0280 
 19 C        6.8660     0.4930    -0.3390 C.2   1 <1>  -0.0100 
 20 C        6.5460     0.5410     0.9710 C.2   1 <1>  -0.1500 
 21 C       -1.3900     3.4370    -1.7340 C.ar  1 <1>   0.1170 
 22 C       -2.9490     2.3690    -0.2400 C.ar  1 <1>  -0.1500 
 23 C       -2.4620     3.9040    -2.4890 C.ar  1 <1>  -0.1500 
 24 C       -4.0080     2.8340    -0.9940 C.ar  1 <1>  -0.1440 
 25 C       -3.7580     3.6060    -2.1230 C.ar  1 <1>  -0.1500 
 26 C       -5.4410     2.5170    -0.6090 C.3   1 <1>  -0.0970 
 27 H        2.8120     2.6510     0.4280 H     1 <1>   0.0800 
 28 H        1.7330     2.0320     1.6270 H     1 <1>   0.0800 
 29 H        3.2630     1.4070    -1.5380 H     1 <1>   0.0800 
 30 H        3.2300    -0.3120    -1.5110 H     1 <1>   0.0800 
 31 H        0.0510    -2.6090     1.4230 H     1 <1>   0.0800 
 32 H        1.5170    -2.7990     2.3440 H     1 <1>   0.0800 
 33 H        1.1470    -3.9110     1.0520 H     1 <1>   0.0800 
 34 H        0.1350    -1.8610    -0.9570 H     1 <1>   0.0800 
 35 H        1.1900    -3.2130    -1.2740 H     1 <1>   0.0800 
 36 H        1.6410    -1.6160    -1.7820 H     1 <1>   0.0800 
 37 H        3.7900    -2.2250     1.2570 H     1 <1>   0.0800 
 38 H        3.8550    -2.0560    -0.4750 H     1 <1>   0.0800 
 39 H        3.3120    -3.5380     0.2160 H     1 <1>   0.0800 
 40 H       -0.7080     1.5920     1.0360 H     1 <1>   0.1500 
 41 H        4.5490     0.6110     1.9070 H     1 <1>   0.1500 
 42 H        0.1390     4.2900    -2.9070 H     1 <1>   0.3700 
 43 H        7.8270     0.4580    -0.8230 H     1 <1>   0.1500 
 44 H        7.1980     0.5540     1.8260 H     1 <1>   0.1500 
 45 H       -3.1290     1.7700     0.6350 H     1 <1>   0.1500 
 46 H       -2.2760     4.5010    -3.3630 H     1 <1>   0.1500 
 47 H       -4.5810     3.9710    -2.7130 H     1 <1>   0.1500 
 48 H       -5.4780     1.9260     0.2890 H     1 <1>   0.0800 
 49 H       -5.9190     1.9670    -1.4000 H     1 <1>   0.0800 
 50 H       -5.9860     3.4290    -0.4410 H     1 <1>   0.0800 
@<TRIPOS>BOND
  1   1   2  2   
  2   2   3  am  
  3   2   4  1   
  4   3   5  1   
  5   3   6  1   
  6   4   7  1   
  7   4   8  1   
  8   4   9  1   
  9   5  10  1   
 10   5  27  1   
 11   5  28  1   
 12   6  11  1   
 13   6  29  1   
 14   6  30  1   
 15   7  31  1   
 16   7  32  1   
 17   7  33  1   
 18   8  34  1   
 19   8  35  1   
 20   8  36  1   
 21   9  37  1   
 22   9  38  1   
 23   9  39  1   
 24  10  12  1   
 25  10  13  2   
 26  11  14  1   
 27  11  15  2   
 28  12  16  2   
 29  12  17  am  
 30  13  18  1   
 31  13  40  1   
 32  14  19  1   
 33  15  20  1   
 34  15  41  1   
 35  17  21  1   
 36  17  42  1   
 37  18  21  ar  
 38  18  22  ar  
 39  19  20  2   
 40  19  43  1   
 41  20  44  1   
 42  21  23  ar  
 43  22  24  ar  
 44  22  45  1   
 45  23  25  ar  
 46  23  46  1   
 47  24  25  ar  
 48  24  26  1   
 49  25  47  1   
 50  26  48  1   
 51  26  49  1   
 52  26  50  1   
@<TRIPOS>SUBSTRUCTURE
  1 ****  10 GROUP 4 **** **** 0

# MOE 2024.06 (io_trps.svl 2023.06)
