@<TRIPOS>MOLECULE
2-(4,5-Dimethyl-thiazol-2-yl)-ethylamine
23 23 1 0 0 
SMALL
USER_CHARGES


@<TRIPOS>ATOM
  1 S       -0.3400     0.0590    -1.6540 S.3   1 <1>  -0.0800 
  2 C        0.5360     0.8650    -0.3760 C.2   1 <1>   0.1980 
  3 C       -1.8180     0.3410    -0.7790 C.2   1 <1>  -0.1400 
  4 N       -0.1880     1.2880     0.5790 N.2   1 <1>  -0.5650 
  5 C        2.0330     0.9840    -0.5150 C.3   1 <1>   0.0200 
  6 C       -1.5250     0.9960     0.3590 C.2   1 <1>   0.0460 
  7 C       -3.0940    -0.1710    -1.4190 C.3   1 <1>  -0.0600 
  8 C        2.5690     1.7190     0.7150 C.3   1 <1>   0.3430 
  9 C       -2.4930     1.4510     1.4310 C.3   1 <1>  -0.0590 
 10 N        4.0500     1.8830     0.6650 N.4   1 <1>  -0.8530 
 11 H        2.2510     1.5330    -1.4120 H     1 <1>   0.0800 
 12 H        2.4500    -0.0050    -0.5800 H     1 <1>   0.0800 
 13 H       -3.0340    -1.2360    -1.5520 H     1 <1>   0.0800 
 14 H       -3.2320     0.2920    -2.3800 H     1 <1>   0.0800 
 15 H       -3.9470     0.0510    -0.8050 H     1 <1>   0.0800 
 16 H        2.2890     1.1650     1.5980 H     1 <1>   0.0800 
 17 H        2.0920     2.6850     0.7760 H     1 <1>   0.0800 
 18 H       -3.5010     1.1840     1.1800 H     1 <1>   0.0800 
 19 H       -2.4340     2.5180     1.5410 H     1 <1>   0.0800 
 20 H       -2.2360     0.9910     2.3680 H     1 <1>   0.0800 
 21 H        4.5260     0.9740     0.6350 H     1 <1>   0.4500 
 22 H        4.3790     2.3790     1.5030 H     1 <1>   0.4500 
 23 H        4.3370     2.4320    -0.1540 H     1 <1>   0.4500 
@<TRIPOS>BOND
  1   1   2  1   
  2   1   3  1   
  3   2   4  2   
  4   2   5  1   
  5   3   6  2   
  6   3   7  1   
  7   4   6  1   
  8   5   8  1   
  9   5  11  1   
 10   5  12  1   
 11   6   9  1   
 12   7  13  1   
 13   7  14  1   
 14   7  15  1   
 15   8  10  1   
 16   8  16  1   
 17   8  17  1   
 18   9  18  1   
 19   9  19  1   
 20   9  20  1   
 21  10  21  1   
 22  10  22  1   
 23  10  23  1   
@<TRIPOS>SUBSTRUCTURE
  1 ****   2 GROUP 4 **** **** 0

# MOE 2024.06 (io_trps.svl 2023.06)
