@<TRIPOS>MOLECULE
N-tert-Butyl-3-(3-phenyl-[1,2,4]oxadiazol-5-yl)-propionamide
39 40 1 0 0 
SMALL
USER_CHARGES


@<TRIPOS>ATOM
  1 O        0.1050    -0.5240    -1.3710 O.2   1 <1>  -0.5700 
  2 C        0.6460    -1.4510    -0.8250 C.2   1 <1>   0.5690 
  3 N        1.9340    -1.3050    -0.4350 N.am  1 <1>  -0.7300 
  4 C       -0.1420    -2.7310    -0.6030 C.3   1 <1>  -0.0990 
  5 C        2.9210    -2.1520     0.2440 C.3   1 <1>   0.3000 
  6 C       -1.4120    -2.8120    -1.4650 C.3   1 <1>   0.0200 
  7 C        3.4560    -3.1910    -0.7400 C.3   1 <1>  -0.2400 
  8 C        2.3310    -2.8090     1.4940 C.3   1 <1>  -0.2400 
  9 C        4.0560    -1.2180     0.6610 C.3   1 <1>  -0.2400 
 10 C       -2.1220    -4.1340    -1.2560 C.2   1 <1>   0.2980 
 11 O       -1.5800    -5.2210    -1.7400 O.3   1 <1>  -0.0190 
 12 N       -3.2130    -4.2990    -0.6340 N.2   1 <1>  -0.5650 
 13 N       -2.3990    -6.1620    -1.3930 N.2   1 <1>  -0.4100 
 14 C       -3.3690    -5.6230    -0.7410 C.2   1 <1>   0.4620 
 15 C       -4.5050    -6.3300    -0.1730 C.ar  1 <1>   0.0540 
 16 C       -5.5260    -5.6580     0.5040 C.ar  1 <1>  -0.1500 
 17 C       -4.6230    -7.7180    -0.2810 C.ar  1 <1>  -0.1500 
 18 C       -6.6060    -6.3330     1.0440 C.ar  1 <1>  -0.1500 
 19 C       -5.6990    -8.4000     0.2570 C.ar  1 <1>  -0.1500 
 20 C       -6.6950    -7.7080     0.9220 C.ar  1 <1>  -0.1500 
 21 H        2.3140    -0.3880    -0.6720 H     1 <1>   0.3700 
 22 H       -0.4240    -2.7800     0.4320 H     1 <1>   0.0800 
 23 H        0.4810    -3.5720    -0.8320 H     1 <1>   0.0800 
 24 H       -1.1600    -2.7100    -2.5060 H     1 <1>   0.0800 
 25 H       -2.0800    -2.0100    -1.2030 H     1 <1>   0.0800 
 26 H        2.6870    -3.8760    -1.0410 H     1 <1>   0.0800 
 27 H        4.2440    -3.7600    -0.2810 H     1 <1>   0.0800 
 28 H        3.8540    -2.7090    -1.6150 H     1 <1>   0.0800 
 29 H        3.1160    -3.2560     2.0760 H     1 <1>   0.0800 
 30 H        1.6420    -3.5910     1.2410 H     1 <1>   0.0800 
 31 H        1.8350    -2.0760     2.1050 H     1 <1>   0.0800 
 32 H        4.8310    -1.7740     1.1580 H     1 <1>   0.0800 
 33 H        3.6950    -0.4670     1.3420 H     1 <1>   0.0800 
 34 H        4.4890    -0.7370    -0.1970 H     1 <1>   0.0800 
 35 H       -5.4740    -4.5880     0.6090 H     1 <1>   0.1500 
 36 H       -3.8570    -8.2730    -0.7950 H     1 <1>   0.1500 
 37 H       -7.3780    -5.7890     1.5610 H     1 <1>   0.1500 
 38 H       -5.7630    -9.4700     0.1580 H     1 <1>   0.1500 
 39 H       -7.5340    -8.2350     1.3410 H     1 <1>   0.1500 
@<TRIPOS>BOND
  1   1   2  2   
  2   2   3  am  
  3   2   4  1   
  4   3   5  1   
  5   3  21  1   
  6   4   6  1   
  7   4  22  1   
  8   4  23  1   
  9   5   7  1   
 10   5   8  1   
 11   5   9  1   
 12   6  10  1   
 13   6  24  1   
 14   6  25  1   
 15   7  26  1   
 16   7  27  1   
 17   7  28  1   
 18   8  29  1   
 19   8  30  1   
 20   8  31  1   
 21   9  32  1   
 22   9  33  1   
 23   9  34  1   
 24  10  11  1   
 25  10  12  2   
 26  11  13  1   
 27  12  14  1   
 28  13  14  2   
 29  14  15  1   
 30  15  16  ar  
 31  15  17  ar  
 32  16  18  ar  
 33  16  35  1   
 34  17  19  ar  
 35  17  36  1   
 36  18  20  ar  
 37  18  37  1   
 38  19  20  ar  
 39  19  38  1   
 40  20  39  1   
@<TRIPOS>SUBSTRUCTURE
  1 ****  10 GROUP 4 **** **** 0

# MOE 2024.06 (io_trps.svl 2023.06)
