@<TRIPOS>MOLECULE
2-(Benzo[1,3]dioxol-5-yl-methanesulfonyl-amino)-N,N-dimethyl-acetamide
36 37 1 0 0 
SMALL
USER_CHARGES


@<TRIPOS>ATOM
  1 S        0.3310     0.0130    -1.9210 S.o2  1 <1>   1.3330 
  2 O        0.4480    -0.9650    -0.8670 O.2   1 <1>  -0.6500 
  3 O        1.3500     0.1100    -2.9360 O.2   1 <1>  -0.6500 
  4 N        0.2380     1.5700    -1.1730 N.am  1 <1>  -0.6930 
  5 C       -1.2480    -0.1290    -2.7320 C.3   1 <1>  -0.1350 
  6 C       -0.8400     1.9910    -0.3870 C.ar  1 <1>   0.1990 
  7 C        1.5200     2.3520    -1.1470 C.3   1 <1>   0.2570 
  8 C       -1.4610     1.1370     0.5260 C.ar  1 <1>  -0.1500 
  9 C       -1.3140     3.3020    -0.5160 C.ar  1 <1>  -0.1500 
 10 C        1.8430     3.0260     0.1940 C.2   1 <1>   0.5690 
 11 C       -2.5270     1.6140     1.2590 C.ar  1 <1>   0.0820 
 12 C       -2.3860     3.7680     0.2320 C.ar  1 <1>  -0.1500 
 13 O        1.8530     4.2370     0.2080 O.2   1 <1>  -0.5700 
 14 N        2.1140     2.2860     1.3260 N.am  1 <1>  -0.6600 
 15 O       -3.2570     0.9670     2.1740 O.3   1 <1>  -0.3630 
 16 C       -2.9790     2.8920     1.1170 C.ar  1 <1>   0.0820 
 17 C        2.2970     2.9360     2.6540 C.3   1 <1>   0.0600 
 18 C        2.1470     0.7960     1.3670 C.3   1 <1>   0.0600 
 19 C       -4.2300     1.8950     2.6520 C.3   1 <1>   0.4000 
 20 O       -4.0170     3.1110     1.9360 O.3   1 <1>  -0.3630 
 21 H       -1.2980    -1.0510    -3.2760 H     1 <1>   0.0800 
 22 H       -1.3840     0.6830    -3.4190 H     1 <1>   0.0800 
 23 H       -2.0420    -0.1110    -2.0120 H     1 <1>   0.0800 
 24 H        1.4710     3.1120    -1.9060 H     1 <1>   0.0800 
 25 H        2.3500     1.7150    -1.3920 H     1 <1>   0.0800 
 26 H       -1.1280     0.1290     0.6810 H     1 <1>   0.1500 
 27 H       -0.8330     3.9680    -1.2090 H     1 <1>   0.1500 
 28 H       -2.7490     4.7760     0.1370 H     1 <1>   0.1500 
 29 H        2.1950     4.0050     2.5780 H     1 <1>   0.0800 
 30 H        3.2770     2.7110     3.0360 H     1 <1>   0.0800 
 31 H        1.5540     2.5710     3.3410 H     1 <1>   0.0800 
 32 H        2.4050     0.3860     0.4070 H     1 <1>   0.0800 
 33 H        1.1830     0.4200     1.6590 H     1 <1>   0.0800 
 34 H        2.8820     0.4640     2.0790 H     1 <1>   0.0800 
 35 H       -4.0800     2.0650     3.7030 H     1 <1>   0.0800 
 36 H       -5.2170     1.5220     2.4440 H     1 <1>   0.0800 
@<TRIPOS>BOND
  1   1   2  2   
  2   1   3  2   
  3   1   4  am  
  4   1   5  1   
  5   4   6  1   
  6   4   7  1   
  7   5  21  1   
  8   5  22  1   
  9   5  23  1   
 10   6   8  ar  
 11   6   9  ar  
 12   7  10  1   
 13   7  24  1   
 14   7  25  1   
 15   8  11  ar  
 16   8  26  1   
 17   9  12  ar  
 18   9  27  1   
 19  10  13  2   
 20  10  14  am  
 21  11  15  1   
 22  11  16  ar  
 23  12  16  ar  
 24  12  28  1   
 25  14  17  1   
 26  14  18  1   
 27  15  19  1   
 28  16  20  1   
 29  17  29  1   
 30  17  30  1   
 31  17  31  1   
 32  18  32  1   
 33  18  33  1   
 34  18  34  1   
 35  19  20  1   
 36  19  35  1   
 37  19  36  1   
@<TRIPOS>SUBSTRUCTURE
  1 ****   6 GROUP 4 **** **** 0

# MOE 2024.06 (io_trps.svl 2023.06)
