@<TRIPOS>MOLECULE
(4-Ethylamino-6-morpholin-4-yl-[1,3,5]triazin-2-yloxy)-acetonitrile
35 36 1 0 0 
SMALL
USER_CHARGES


@<TRIPOS>ATOM
  1 O       -0.6040    -0.2000     0.1940 O.3   1 <1>  -0.5600 
  2 C       -1.7460    -0.5000     0.9480 C.3   1 <1>   0.1200 
  3 C       -0.3670     1.1740     0.0620 C.3   1 <1>   0.1200 
  4 C       -3.0110     0.0930     0.3030 C.3   1 <1>   0.2090 
  5 C       -1.5410     1.8750    -0.6430 C.3   1 <1>   0.2090 
  6 N       -2.8390     1.5520     0.0290 N.pl3 1 <1>  -0.8380 
  7 C       -3.8970     2.4270     0.0370 C.ar  1 <1>   0.7200 
  8 N       -3.6080     3.7050     0.0110 N.ar  1 <1>  -0.6200 
  9 N       -5.1050     1.9250     0.0670 N.ar  1 <1>  -0.6200 
 10 C       -4.6560     4.4820    -0.0300 C.ar  1 <1>   0.7030 
 11 C       -6.0510     2.8160     0.0390 C.ar  1 <1>   0.7200 
 12 O       -4.4620     5.8090    -0.0790 O.3   1 <1>  -0.3630 
 13 N       -5.9020     4.1130    -0.0200 N.ar  1 <1>  -0.6200 
 14 N       -7.3050     2.3150     0.0650 N.pl3 1 <1>  -0.8690 
 15 C       -3.1680     6.3820    -0.0090 C.3   1 <1>   0.3200 
 16 C       -8.5250     3.0720    -0.2540 C.3   1 <1>   0.2090 
 17 C       -2.4200     6.2230    -1.2950 C.1   1 <1>   0.3570 
 18 C       -9.7290     2.1930     0.0580 C.3   1 <1>  -0.2400 
 19 N       -1.8160     6.1160    -2.2550 N.1   1 <1>  -0.5570 
 20 H       -1.6150    -0.1080     1.9410 H     1 <1>   0.0800 
 21 H       -1.8280    -1.5700     1.0080 H     1 <1>   0.0800 
 22 H        0.5340     1.2990    -0.5120 H     1 <1>   0.0800 
 23 H       -0.2150     1.5940     1.0410 H     1 <1>   0.0800 
 24 H       -3.8440    -0.0680     0.9650 H     1 <1>   0.0800 
 25 H       -3.2150    -0.4200    -0.6210 H     1 <1>   0.0800 
 26 H       -1.5840     1.5450    -1.6670 H     1 <1>   0.0800 
 27 H       -1.3600     2.9350    -0.6480 H     1 <1>   0.0800 
 28 H       -7.3480     1.3040    -0.0460 H     1 <1>   0.4000 
 29 H       -2.6270     5.9290     0.8030 H     1 <1>   0.0800 
 30 H       -3.2930     7.4280     0.1980 H     1 <1>   0.0800 
 31 H       -8.5170     3.3440    -1.2970 H     1 <1>   0.0800 
 32 H       -8.5580     3.9720     0.3380 H     1 <1>   0.0800 
 33 H       -9.7120     1.3050    -0.5470 H     1 <1>   0.0800 
 34 H      -10.6330     2.7340    -0.1550 H     1 <1>   0.0800 
 35 H       -9.7300     1.9230     1.0990 H     1 <1>   0.0800 
@<TRIPOS>BOND
  1   1   2  1   
  2   1   3  1   
  3   2   4  1   
  4   2  20  1   
  5   2  21  1   
  6   3   5  1   
  7   3  22  1   
  8   3  23  1   
  9   4   6  1   
 10   4  24  1   
 11   4  25  1   
 12   5   6  1   
 13   5  26  1   
 14   5  27  1   
 15   6   7  1   
 16   7   8  ar  
 17   7   9  ar  
 18   8  10  ar  
 19   9  11  ar  
 20  10  12  1   
 21  10  13  ar  
 22  11  13  ar  
 23  11  14  1   
 24  12  15  1   
 25  14  16  1   
 26  14  28  1   
 27  15  17  1   
 28  15  29  1   
 29  15  30  1   
 30  16  18  1   
 31  16  31  1   
 32  16  32  1   
 33  17  19  3   
 34  18  33  1   
 35  18  34  1   
 36  18  35  1   
@<TRIPOS>SUBSTRUCTURE
  1 ****   7 GROUP 4 **** **** 0

# MOE 2024.06 (io_trps.svl 2023.06)
