@<TRIPOS>MOLECULE
3-[3-Benzofuran-2-yl-4-(piperidine-1-carbonyl)-pyrazol-1-yl]-propionitrile
46 49 1 0 0 
SMALL
USER_CHARGES


@<TRIPOS>ATOM
  1 O        1.8430    -1.3740    -3.0800 O.2   1 <1>  -0.5700 
  2 C        1.6750    -1.6600    -1.9090 C.2   1 <1>   0.7160 
  3 N        2.3280    -0.9340    -0.9330 N.am  1 <1>  -0.6600 
  4 C        0.7940    -2.7450    -1.5780 C.2   1 <1>  -0.0860 
  5 C        3.0810     0.3110    -1.2520 C.3   1 <1>   0.1400 
  6 C        2.4230    -1.3630     0.4930 C.3   1 <1>   0.1400 
  7 C       -0.4190    -2.6270    -0.8800 C.2   1 <1>   0.2880 
  8 C        0.9090    -4.0760    -1.8300 C.2   1 <1>  -0.3020 
  9 C        2.5990     1.4500    -0.3470 C.3   1 <1>  -0.1600 
 10 C        1.9610    -0.2320     1.4190 C.3   1 <1>  -0.1600 
 11 N       -0.9680    -3.8040    -0.6950 N.2   1 <1>  -0.7070 
 12 C       -0.9910    -1.3770    -0.4330 C.2   1 <1>   0.1410 
 13 N       -0.1550    -4.6820    -1.2920 N.pl3 1 <1>   0.3140 
 14 C        2.7080     1.0780     1.1380 C.3   1 <1>  -0.1600 
 15 O       -1.6850    -1.3300     0.7120 O.3   1 <1>  -0.2800 
 16 C       -0.9440    -0.1380    -0.9840 C.2   1 <1>  -0.1500 
 17 C       -0.4550    -6.1240    -1.3170 C.3   1 <1>   0.0960 
 18 C       -2.0750    -0.0710     0.9070 C.ar  1 <1>   0.1400 
 19 C       -1.6370     0.7330    -0.1290 C.ar  1 <1>   0.0000 
 20 C       -0.8070    -6.6250     0.0870 C.3   1 <1>   0.0400 
 21 C       -2.8080     0.4360     1.9700 C.ar  1 <1>  -0.1500 
 22 C       -1.9350     2.0960    -0.1130 C.ar  1 <1>  -0.1500 
 23 C       -0.9870    -8.0990     0.0620 C.1   1 <1>   0.3570 
 24 C       -3.0990     1.7860     1.9810 C.ar  1 <1>  -0.1500 
 25 C       -2.6620     2.6120     0.9410 C.ar  1 <1>  -0.1500 
 26 N       -1.1050    -9.2270     0.0110 N.1   1 <1>  -0.5570 
 27 H        2.9410     0.5910    -2.2820 H     1 <1>   0.0800 
 28 H        4.1310     0.1350    -1.0940 H     1 <1>   0.0800 
 29 H        3.4490    -1.6060     0.7100 H     1 <1>   0.0800 
 30 H        1.8310    -2.2420     0.6780 H     1 <1>   0.0800 
 31 H        1.6900    -4.5900    -2.3590 H     1 <1>   0.1500 
 32 H        1.5760     1.6790    -0.5910 H     1 <1>   0.0800 
 33 H        3.1860     2.3300    -0.5430 H     1 <1>   0.0800 
 34 H        2.1200    -0.5250     2.4420 H     1 <1>   0.0800 
 35 H        0.9050    -0.0790     1.2910 H     1 <1>   0.0800 
 36 H        2.2940     1.8680     1.7420 H     1 <1>   0.0800 
 37 H        3.7450     0.9630     1.4020 H     1 <1>   0.0800 
 38 H       -0.4710     0.1650    -1.9000 H     1 <1>   0.1500 
 39 H        0.4050    -6.6470    -1.6940 H     1 <1>   0.0800 
 40 H       -1.2810    -6.2850    -1.9850 H     1 <1>   0.0800 
 41 H       -1.7210    -6.1710     0.4270 H     1 <1>   0.0800 
 42 H       -0.0180    -6.3860     0.7760 H     1 <1>   0.0800 
 43 H       -3.1320    -0.2220     2.7550 H     1 <1>   0.1500 
 44 H       -1.5950     2.7230    -0.9180 H     1 <1>   0.1500 
 45 H       -3.6660     2.2100     2.7920 H     1 <1>   0.1500 
 46 H       -2.9010     3.6620     0.9690 H     1 <1>   0.1500 
@<TRIPOS>BOND
  1   1   2  2   
  2   2   3  am  
  3   2   4  1   
  4   3   5  1   
  5   3   6  1   
  6   4   7  1   
  7   4   8  2   
  8   5   9  1   
  9   5  27  1   
 10   5  28  1   
 11   6  10  1   
 12   6  29  1   
 13   6  30  1   
 14   7  11  2   
 15   7  12  1   
 16   8  13  1   
 17   8  31  1   
 18   9  14  1   
 19   9  32  1   
 20   9  33  1   
 21  10  14  1   
 22  10  34  1   
 23  10  35  1   
 24  11  13  1   
 25  12  15  1   
 26  12  16  2   
 27  13  17  1   
 28  14  36  1   
 29  14  37  1   
 30  15  18  1   
 31  16  19  1   
 32  16  38  1   
 33  17  20  1   
 34  17  39  1   
 35  17  40  1   
 36  18  19  ar  
 37  18  21  ar  
 38  19  22  ar  
 39  20  23  1   
 40  20  41  1   
 41  20  42  1   
 42  21  24  ar  
 43  21  43  1   
 44  22  25  ar  
 45  22  44  1   
 46  23  26  3   
 47  24  25  ar  
 48  24  45  1   
 49  25  46  1   
@<TRIPOS>SUBSTRUCTURE
  1 ****  12 GROUP 4 **** **** 0

# MOE 2024.06 (io_trps.svl 2023.06)
