@<TRIPOS>MOLECULE
4-Chloro-N-(1-methyl-butyl)-3-(morpholine-4-sulfonyl)-benzamide
47 48 1 0 0 
SMALL
USER_CHARGES


@<TRIPOS>ATOM
  1 CL       0.5470    -0.0710    -2.6240 Cl    1 <1>  -0.1770 
  2 C        1.7590    -1.0040    -1.7860 C.ar  1 <1>   0.1770 
  3 C        1.4710    -2.2150    -1.1680 C.ar  1 <1>  -0.0090 
  4 C        3.0300    -0.4590    -1.7550 C.ar  1 <1>  -0.1500 
  5 S       -0.1770    -2.9690    -1.1580 S.o2  1 <1>   1.4470 
  6 C        2.5150    -2.8440    -0.4980 C.ar  1 <1>  -0.1500 
  7 C        4.0460    -1.1160    -1.0890 C.ar  1 <1>  -0.1500 
  8 O       -0.0070    -4.3920    -0.9610 O.2   1 <1>  -0.6500 
  9 O       -1.0110    -2.5340    -2.2550 O.2   1 <1>  -0.6500 
 10 N       -0.8670    -2.3690     0.2700 N.am  1 <1>  -0.8490 
 11 C        3.8100    -2.3290    -0.4420 C.ar  1 <1>   0.0860 
 12 C       -1.3670    -0.9890     0.1370 C.3   1 <1>   0.1960 
 13 C       -1.9590    -3.2340     0.7470 C.3   1 <1>   0.1960 
 14 C        4.8580    -3.0340     0.2720 C.2   1 <1>   0.5440 
 15 C       -1.9980    -0.4970     1.4520 C.3   1 <1>   0.1200 
 16 C       -2.5810    -2.6840     2.0440 C.3   1 <1>   0.1200 
 17 O        4.5960    -3.6720     1.2710 O.2   1 <1>  -0.5700 
 18 N        6.1480    -3.0000    -0.1770 N.am  1 <1>  -0.7300 
 19 O       -3.0130    -1.3650     1.8650 O.3   1 <1>  -0.5600 
 20 C        7.2910    -3.6800     0.4520 C.3   1 <1>   0.2200 
 21 C        8.3320    -2.6160     0.8240 C.3   1 <1>  -0.1600 
 22 C        7.8150    -4.7100    -0.5460 C.3   1 <1>  -0.2400 
 23 C        9.5230    -3.1840     1.6120 C.3   1 <1>  -0.1600 
 24 C       10.4750    -2.0670     2.0480 C.3   1 <1>  -0.2400 
 25 H        3.2170     0.4790    -2.2480 H     1 <1>   0.1500 
 26 H        2.3220    -3.7770     0.0080 H     1 <1>   0.1500 
 27 H        5.0290    -0.6790    -1.0580 H     1 <1>   0.1500 
 28 H       -2.1060    -0.9310    -0.6460 H     1 <1>   0.0800 
 29 H       -0.5550    -0.3320    -0.1190 H     1 <1>   0.0800 
 30 H       -1.5800    -4.2230     0.9430 H     1 <1>   0.0800 
 31 H       -2.7230    -3.3140    -0.0080 H     1 <1>   0.0800 
 32 H       -2.4340     0.4760     1.3140 H     1 <1>   0.0800 
 33 H       -1.2550    -0.4400     2.2290 H     1 <1>   0.0800 
 34 H       -1.8620    -2.7070     2.8440 H     1 <1>   0.0800 
 35 H       -3.4340    -3.2750     2.3260 H     1 <1>   0.0800 
 36 H        6.3580    -2.5610    -1.0710 H     1 <1>   0.3700 
 37 H        6.9640    -4.1850     1.3470 H     1 <1>   0.0800 
 38 H        7.8460    -1.8740     1.4340 H     1 <1>   0.0800 
 39 H        8.6930    -2.1350    -0.0680 H     1 <1>   0.0800 
 40 H        8.2130    -4.2300    -1.4220 H     1 <1>   0.0800 
 41 H        7.0200    -5.3760    -0.8330 H     1 <1>   0.0800 
 42 H        8.5900    -5.3020    -0.0970 H     1 <1>   0.0800 
 43 H       10.0680    -3.8870     1.0060 H     1 <1>   0.0800 
 44 H        9.1630    -3.7020     2.4850 H     1 <1>   0.0800 
 45 H       10.8620    -1.5450     1.1910 H     1 <1>   0.0800 
 46 H       11.3020    -2.4830     2.5970 H     1 <1>   0.0800 
 47 H        9.9650    -1.3640     2.6830 H     1 <1>   0.0800 
@<TRIPOS>BOND
  1   1   2  1   
  2   2   3  ar  
  3   2   4  ar  
  4   3   5  1   
  5   3   6  ar  
  6   4   7  ar  
  7   4  25  1   
  8   5   8  2   
  9   5   9  2   
 10   5  10  am  
 11   6  11  ar  
 12   6  26  1   
 13   7  11  ar  
 14   7  27  1   
 15  10  12  1   
 16  10  13  1   
 17  11  14  1   
 18  12  15  1   
 19  12  28  1   
 20  12  29  1   
 21  13  16  1   
 22  13  30  1   
 23  13  31  1   
 24  14  17  2   
 25  14  18  am  
 26  15  19  1   
 27  15  32  1   
 28  15  33  1   
 29  16  19  1   
 30  16  34  1   
 31  16  35  1   
 32  18  20  1   
 33  18  36  1   
 34  20  21  1   
 35  20  22  1   
 36  20  37  1   
 37  21  23  1   
 38  21  38  1   
 39  21  39  1   
 40  22  40  1   
 41  22  41  1   
 42  22  42  1   
 43  23  24  1   
 44  23  43  1   
 45  23  44  1   
 46  24  45  1   
 47  24  46  1   
 48  24  47  1   
@<TRIPOS>SUBSTRUCTURE
  1 ****   6 GROUP 4 **** **** 0

# MOE 2024.06 (io_trps.svl 2023.06)
