@<TRIPOS>MOLECULE
4-(2-Chloro-phenyl)-6-(4-methyl-piperazin-1-ylmethyl)-2-oxo-1,2,3,4-tetrahydro-p
53 55 1 0 0 
SMALL
USER_CHARGES


@<TRIPOS>ATOM
  1 CL      -2.6200    -1.5040    -2.4040 Cl    1 <1>  -0.1770 
  2 C       -2.7480    -0.1520    -1.3050 C.ar  1 <1>   0.1770 
  3 C       -3.0870    -0.3220     0.0340 C.ar  1 <1>  -0.1440 
  4 C       -2.4960     1.1020    -1.8320 C.ar  1 <1>  -0.1500 
  5 C       -3.1630     0.8120     0.8350 C.ar  1 <1>  -0.1500 
  6 C       -3.3790    -1.6850     0.6660 C.3   1 <1>   0.5020 
  7 C       -2.5770     2.2190    -1.0200 C.ar  1 <1>  -0.1500 
  8 C       -2.9110     2.0710     0.3140 C.ar  1 <1>  -0.1500 
  9 N       -2.0980    -2.4020     0.8100 N.am  1 <1>  -0.7300 
 10 C       -4.4560    -2.5080    -0.0590 C.2   1 <1>  -0.1240 
 11 C       -1.8500    -3.6070     0.2730 C.2   1 <1>   0.6900 
 12 C       -4.1310    -3.7400    -0.5480 C.2   1 <1>  -0.0290 
 13 C       -5.7260    -1.8500    -0.1400 C.2   1 <1>   0.7060 
 14 O       -0.7680    -4.1330     0.3880 O.2   1 <1>  -0.5700 
 15 N       -2.8510    -4.2330    -0.3840 N.am  1 <1>  -0.5390 
 16 C       -5.0680    -4.6890    -1.3080 C.3   1 <1>   0.2480 
 17 O       -6.6240    -2.2080    -0.8750 O.2   1 <1>  -0.5700 
 18 O       -5.9460    -0.7940     0.6510 O.3   1 <1>  -0.4300 
 19 N       -4.8210    -6.1080    -0.9440 N.3   1 <1>  -0.8100 
 20 C       -7.1440    -0.0520     0.5870 C.3   1 <1>   0.1200 
 21 C       -5.2060    -6.3840     0.4640 C.3   1 <1>   0.1100 
 22 C       -5.5440    -7.0210    -1.8600 C.3   1 <1>   0.1100 
 23 C       -7.0180     1.1260     1.5460 C.3   1 <1>  -0.2400 
 24 C       -4.9580    -7.8590     0.8670 C.3   1 <1>   0.3430 
 25 C       -5.3660    -8.5140    -1.4800 C.3   1 <1>   0.3430 
 26 N       -4.4590    -8.6710    -0.2940 N.4   1 <1>  -0.9590 
 27 C       -4.1780   -10.0930     0.0560 C.3   1 <1>   0.2630 
 28 H       -2.2370     1.1990    -2.8710 H     1 <1>   0.1500 
 29 H       -3.4230     0.7290     1.8770 H     1 <1>   0.1500 
 30 H       -3.7400    -1.5170     1.6670 H     1 <1>   0.0800 
 31 H       -2.3810     3.1980    -1.4240 H     1 <1>   0.1500 
 32 H       -2.9750     2.9390     0.9490 H     1 <1>   0.1500 
 33 H       -1.2980    -1.8700     1.1450 H     1 <1>   0.3700 
 34 H       -2.6120    -5.1440    -0.7760 H     1 <1>   0.3700 
 35 H       -4.8790    -4.5560    -2.3600 H     1 <1>   0.0800 
 36 H       -6.1010    -4.4570    -1.1280 H     1 <1>   0.0800 
 37 H       -7.9610    -0.6960     0.8650 H     1 <1>   0.0800 
 38 H       -7.2810     0.2900    -0.4260 H     1 <1>   0.0800 
 39 H       -6.2470    -6.1500     0.6110 H     1 <1>   0.0800 
 40 H       -4.6400    -5.7520     1.1280 H     1 <1>   0.0800 
 41 H       -5.1830    -6.8750    -2.8650 H     1 <1>   0.0800 
 42 H       -6.5960    -6.7840    -1.8600 H     1 <1>   0.0800 
 43 H       -6.8690     0.7740     2.5510 H     1 <1>   0.0800 
 44 H       -7.9190     1.7120     1.5190 H     1 <1>   0.0800 
 45 H       -6.1940     1.7540     1.2550 H     1 <1>   0.0800 
 46 H       -5.8760    -8.2800     1.2440 H     1 <1>   0.0800 
 47 H       -4.2350    -7.8830     1.6650 H     1 <1>   0.0800 
 48 H       -4.9600    -9.0430    -2.3260 H     1 <1>   0.0800 
 49 H       -6.3310    -8.9390    -1.2610 H     1 <1>   0.0800 
 50 H       -3.5900    -8.1880    -0.5770 H     1 <1>   0.4500 
 51 H       -5.0860   -10.5930     0.3520 H     1 <1>   0.0800 
 52 H       -3.4730   -10.1450     0.8710 H     1 <1>   0.0800 
 53 H       -3.7590   -10.6100    -0.7920 H     1 <1>   0.0800 
@<TRIPOS>BOND
  1   1   2  1   
  2   2   3  ar  
  3   2   4  ar  
  4   3   5  ar  
  5   3   6  1   
  6   4   7  ar  
  7   4  28  1   
  8   5   8  ar  
  9   5  29  1   
 10   6   9  1   
 11   6  10  1   
 12   6  30  1   
 13   7   8  ar  
 14   7  31  1   
 15   8  32  1   
 16   9  11  am  
 17   9  33  1   
 18  10  12  2   
 19  10  13  1   
 20  11  14  2   
 21  11  15  am  
 22  12  15  1   
 23  12  16  1   
 24  13  17  2   
 25  13  18  1   
 26  15  34  1   
 27  16  19  1   
 28  16  35  1   
 29  16  36  1   
 30  18  20  1   
 31  19  21  1   
 32  19  22  1   
 33  20  23  1   
 34  20  37  1   
 35  20  38  1   
 36  21  24  1   
 37  21  39  1   
 38  21  40  1   
 39  22  25  1   
 40  22  41  1   
 41  22  42  1   
 42  23  43  1   
 43  23  44  1   
 44  23  45  1   
 45  24  26  1   
 46  24  46  1   
 47  24  47  1   
 48  25  26  1   
 49  25  48  1   
 50  25  49  1   
 51  26  27  1   
 52  26  50  1   
 53  27  51  1   
 54  27  52  1   
 55  27  53  1   
@<TRIPOS>SUBSTRUCTURE
  1 ****  10 GROUP 4 **** **** 0

# MOE 2024.06 (io_trps.svl 2023.06)
