@<TRIPOS>MOLECULE
7-(2-Fluoro-benzyl)-1,3-dimethyl-8-(2-methyl-piperidin-1-ylmethyl)-3,7-dihydro-p
56 59 1 0 0 
SMALL
USER_CHARGES


@<TRIPOS>ATOM
  1 F        0.7730    -1.9130     0.8880 F     1 <1>  -0.1900 
  2 C       -0.2200    -1.3470     0.2540 C.ar  1 <1>   0.1900 
  3 C       -1.5150    -1.7750     0.5030 C.ar  1 <1>  -0.1440 
  4 C        0.0750    -0.3420    -0.6470 C.ar  1 <1>  -0.1500 
  5 C       -2.5460    -1.1460    -0.1820 C.ar  1 <1>  -0.1500 
  6 C       -1.7980    -2.8890     1.4960 C.3   1 <1>   0.4980 
  7 C       -0.9660     0.2670    -1.3250 C.ar  1 <1>  -0.1500 
  8 C       -2.2710    -0.1350    -1.0900 C.ar  1 <1>  -0.1500 
  9 N       -2.0230    -4.1600     0.7520 N.pl3 1 <1>  -0.7640 
 10 C       -3.2830    -4.6780     0.4210 C.2   1 <1>   0.2770 
 11 C       -1.1180    -4.9910     0.2420 C.cat 1 <1>   0.6560 
 12 C       -4.6430    -4.2770     0.6460 C.2   1 <1>   0.7030 
 13 C       -3.0610    -5.8200    -0.2730 C.2   1 <1>   0.4260 
 14 N       -1.7240    -5.9960    -0.3740 N.pl3 1 <1>  -0.7000 
 15 C        0.4160    -4.9080     0.2860 C.3   1 <1>   0.2540 
 16 O       -4.9040    -3.2710     1.2820 O.2   1 <1>  -0.5700 
 17 N       -5.6590    -5.0650     0.1220 N.am  1 <1>  -0.4200 
 18 N       -4.0630    -6.6300    -0.7710 N.am  1 <1>  -0.4360 
 19 N        1.0380    -6.2160    -0.0820 N.3   1 <1>  -0.8100 
 20 C       -5.3780    -6.2370    -0.5730 C.2   1 <1>   0.6900 
 21 C       -7.0910    -4.6780     0.3240 C.3   1 <1>   0.0600 
 22 C       -3.7320    -7.8780    -1.5200 C.3   1 <1>   0.0600 
 23 C        1.4540    -7.0250     1.0900 C.3   1 <1>   0.1900 
 24 C        2.1770    -5.9880    -0.9950 C.3   1 <1>   0.1100 
 25 O       -6.2860    -6.9170    -1.0060 O.2   1 <1>  -0.5700 
 26 C        1.9960    -8.3830     0.6160 C.3   1 <1>  -0.1600 
 27 C        0.2850    -7.2760     2.0510 C.3   1 <1>  -0.2400 
 28 C        2.7140    -7.3160    -1.5280 C.3   1 <1>  -0.1600 
 29 C        3.1480    -8.2280    -0.3800 C.3   1 <1>  -0.1600 
 30 H        1.0940    -0.0400    -0.8120 H     1 <1>   0.1500 
 31 H       -3.5730    -1.4280    -0.0150 H     1 <1>   0.1500 
 32 H       -2.6640    -2.6390     2.0840 H     1 <1>   0.0800 
 33 H       -0.9760    -3.0080     2.1810 H     1 <1>   0.0800 
 34 H       -0.7630     1.0550    -2.0320 H     1 <1>   0.1500 
 35 H       -3.0780     0.3470    -1.6170 H     1 <1>   0.1500 
 36 H       -1.1720    -6.7480    -0.8030 H     1 <1>   0.4500 
 37 H        0.7500    -4.5910     1.2580 H     1 <1>   0.0800 
 38 H        0.7070    -4.1510    -0.4210 H     1 <1>   0.0800 
 39 H       -7.5160    -5.2710     1.1150 H     1 <1>   0.0800 
 40 H       -7.6520    -4.8540    -0.5790 H     1 <1>   0.0800 
 41 H       -7.1830    -3.6370     0.5780 H     1 <1>   0.0800 
 42 H       -3.4360    -7.6300    -2.5250 H     1 <1>   0.0800 
 43 H       -4.5840    -8.5350    -1.5660 H     1 <1>   0.0800 
 44 H       -2.9310    -8.4050    -1.0310 H     1 <1>   0.0800 
 45 H        2.2390    -6.5080     1.6200 H     1 <1>   0.0800 
 46 H        2.9630    -5.4600    -0.4780 H     1 <1>   0.0800 
 47 H        1.8610    -5.3890    -1.8330 H     1 <1>   0.0800 
 48 H        1.2000    -8.9420     0.1550 H     1 <1>   0.0800 
 49 H        2.3430    -8.9490     1.4630 H     1 <1>   0.0800 
 50 H       -0.5330    -7.7500     1.5400 H     1 <1>   0.0800 
 51 H       -0.0470    -6.3710     2.5210 H     1 <1>   0.0800 
 52 H        0.6070    -7.9360     2.8380 H     1 <1>   0.0800 
 53 H        3.5530    -7.1290    -2.1750 H     1 <1>   0.0800 
 54 H        1.9500    -7.7970    -2.1120 H     1 <1>   0.0800 
 55 H        3.4360    -9.1920    -0.7640 H     1 <1>   0.0800 
 56 H        3.9990    -7.7980     0.1190 H     1 <1>   0.0800 
@<TRIPOS>BOND
  1   1   2  1   
  2   2   3  ar  
  3   2   4  ar  
  4   3   5  ar  
  5   3   6  1   
  6   4   7  ar  
  7   4  30  1   
  8   5   8  ar  
  9   5  31  1   
 10   6   9  1   
 11   6  32  1   
 12   6  33  1   
 13   7   8  ar  
 14   7  34  1   
 15   8  35  1   
 16   9  10  1   
 17   9  11  ar  
 18  10  12  1   
 19  10  13  2   
 20  11  14  ar  
 21  11  15  1   
 22  12  16  2   
 23  12  17  am  
 24  13  14  1   
 25  13  18  1   
 26  14  36  1   
 27  15  19  1   
 28  15  37  1   
 29  15  38  1   
 30  17  20  am  
 31  17  21  1   
 32  18  20  am  
 33  18  22  1   
 34  19  23  1   
 35  19  24  1   
 36  20  25  2   
 37  21  39  1   
 38  21  40  1   
 39  21  41  1   
 40  22  42  1   
 41  22  43  1   
 42  22  44  1   
 43  23  26  1   
 44  23  27  1   
 45  23  45  1   
 46  24  28  1   
 47  24  46  1   
 48  24  47  1   
 49  26  29  1   
 50  26  48  1   
 51  26  49  1   
 52  27  50  1   
 53  27  51  1   
 54  27  52  1   
 55  28  29  1   
 56  28  53  1   
 57  28  54  1   
 58  29  55  1   
 59  29  56  1   
@<TRIPOS>SUBSTRUCTURE
  1 ****  11 GROUP 4 **** **** 0

# MOE 2024.06 (io_trps.svl 2023.06)
