@<TRIPOS>MOLECULE
N-Butyl-4-(3-m-tolyl-[1,2,4]oxadiazol-5-yl)-butyramide
45 46 1 0 0 
SMALL
USER_CHARGES


@<TRIPOS>ATOM
  1 O       -1.4080    -1.2000    -2.1260 O.2   1 <1>  -0.5700 
  2 C       -1.5110    -2.2300    -1.5100 C.2   1 <1>   0.5690 
  3 N       -0.7250    -3.2810    -1.8410 N.am  1 <1>  -0.7300 
  4 C       -2.5040    -2.3440    -0.3610 C.3   1 <1>  -0.0990 
  5 C       -0.6680    -4.6330    -1.2440 C.3   1 <1>   0.1400 
  6 C       -3.3680    -1.0840    -0.1420 C.3   1 <1>  -0.1600 
  7 C        0.5950    -4.7470    -0.3910 C.3   1 <1>  -0.1600 
  8 C       -4.2630    -1.1640     1.1070 C.3   1 <1>   0.0200 
  9 C        0.6940    -6.1280     0.2690 C.3   1 <1>  -0.1600 
 10 C       -5.2010    -2.3580     1.0930 C.2   1 <1>   0.2980 
 11 C        1.9570    -6.2380     1.1280 C.3   1 <1>  -0.2400 
 12 O       -4.7670    -3.5050     1.5460 O.3   1 <1>  -0.0190 
 13 N       -6.3970    -2.3550     0.6750 N.2   1 <1>  -0.5650 
 14 N       -5.7730    -4.3050     1.3930 N.2   1 <1>  -0.4100 
 15 C       -6.7420    -3.6310     0.8800 C.2   1 <1>   0.4620 
 16 C       -8.0570    -4.1550     0.5480 C.ar  1 <1>   0.0540 
 17 C       -9.0400    -3.3550    -0.0400 C.ar  1 <1>  -0.1500 
 18 C       -8.3910    -5.4860     0.8030 C.ar  1 <1>  -0.1500 
 19 C      -10.2930    -3.8500    -0.3600 C.ar  1 <1>  -0.1440 
 20 C       -9.6390    -5.9910     0.4900 C.ar  1 <1>  -0.1500 
 21 C      -10.5900    -5.1740    -0.0920 C.ar  1 <1>  -0.1500 
 22 C      -11.3400    -2.9540    -0.9970 C.3   1 <1>  -0.0970 
 23 H       -0.0680    -3.1010    -2.6030 H     1 <1>   0.3700 
 24 H       -1.9490    -2.5570     0.5340 H     1 <1>   0.0800 
 25 H       -3.1470    -3.1780    -0.5700 H     1 <1>   0.0800 
 26 H       -0.6490    -5.3650    -2.0330 H     1 <1>   0.0800 
 27 H       -1.5380    -4.8150    -0.6380 H     1 <1>   0.0800 
 28 H       -3.9870    -0.9310    -1.0110 H     1 <1>   0.0800 
 29 H       -2.7250    -0.2260    -0.0490 H     1 <1>   0.0800 
 30 H        0.5750    -3.9890     0.3730 H     1 <1>   0.0800 
 31 H        1.4590    -4.5860    -1.0110 H     1 <1>   0.0800 
 32 H       -4.8550    -0.2680     1.1650 H     1 <1>   0.0800 
 33 H       -3.6540    -1.2090     1.9920 H     1 <1>   0.0800 
 34 H        0.7150    -6.8930    -0.4890 H     1 <1>   0.0800 
 35 H       -0.1700    -6.2970     0.8900 H     1 <1>   0.0800 
 36 H        2.8360    -6.0950     0.5250 H     1 <1>   0.0800 
 37 H        2.0090    -7.2110     1.5830 H     1 <1>   0.0800 
 38 H        1.9480    -5.4970     1.9080 H     1 <1>   0.0800 
 39 H       -8.8130    -2.3240    -0.2490 H     1 <1>   0.1500 
 40 H       -7.6620    -6.1350     1.2560 H     1 <1>   0.1500 
 41 H       -9.8700    -7.0220     0.6980 H     1 <1>   0.1500 
 42 H      -11.5610    -5.5730    -0.3330 H     1 <1>   0.1500 
 43 H      -10.8910    -2.0590    -1.3890 H     1 <1>   0.0800 
 44 H      -12.0780    -2.6790    -0.2650 H     1 <1>   0.0800 
 45 H      -11.8270    -3.4710    -1.8050 H     1 <1>   0.0800 
@<TRIPOS>BOND
  1   1   2  2   
  2   2   3  am  
  3   2   4  1   
  4   3   5  1   
  5   3  23  1   
  6   4   6  1   
  7   4  24  1   
  8   4  25  1   
  9   5   7  1   
 10   5  26  1   
 11   5  27  1   
 12   6   8  1   
 13   6  28  1   
 14   6  29  1   
 15   7   9  1   
 16   7  30  1   
 17   7  31  1   
 18   8  10  1   
 19   8  32  1   
 20   8  33  1   
 21   9  11  1   
 22   9  34  1   
 23   9  35  1   
 24  10  12  1   
 25  10  13  2   
 26  11  36  1   
 27  11  37  1   
 28  11  38  1   
 29  12  14  1   
 30  13  15  1   
 31  14  15  2   
 32  15  16  1   
 33  16  17  ar  
 34  16  18  ar  
 35  17  19  ar  
 36  17  39  1   
 37  18  20  ar  
 38  18  40  1   
 39  19  21  ar  
 40  19  22  1   
 41  20  21  ar  
 42  20  41  1   
 43  21  42  1   
 44  22  43  1   
 45  22  44  1   
 46  22  45  1   
@<TRIPOS>SUBSTRUCTURE
  1 ****  12 GROUP 4 **** **** 0

# MOE 2024.06 (io_trps.svl 2023.06)
