@<TRIPOS>MOLECULE
4-(2,5-Dioxo-pyrrolidin-1-yl)-butyric acid
23 23 1 0 0 
SMALL
USER_CHARGES


@<TRIPOS>ATOM
  1 O        0.0700    -1.0850     1.3670 O.2   1 <1>  -0.5700 
  2 C       -0.4570    -1.8620     0.6150 C.2   1 <1>   0.5690 
  3 N        0.1450    -2.5560    -0.3870 N.am  1 <1>  -0.4200 
  4 C       -1.9360    -2.1680     0.6630 C.3   1 <1>  -0.0990 
  5 C       -0.7560    -3.2840    -1.0980 C.2   1 <1>   0.5690 
  6 C        1.6000    -2.5390    -0.6550 C.3   1 <1>   0.1400 
  7 C       -2.1410    -3.1420    -0.5110 C.3   1 <1>  -0.0990 
  8 O       -0.5310    -3.9440    -2.0790 O.2   1 <1>  -0.5700 
  9 C        2.2980    -3.6440     0.1400 C.3   1 <1>  -0.1600 
 10 C        3.8140    -3.6450    -0.1240 C.3   1 <1>  -0.2660 
 11 C        4.5280    -4.7280     0.6510 C.2   1 <1>   0.9060 
 12 O        4.6620    -5.8360     0.1250 O.co2 1 <1>  -0.9000 
 13 O        4.9510    -4.4630     1.7790 O.co2 1 <1>  -0.9000 
 14 H       -2.5000    -1.2620     0.5320 H     1 <1>   0.0800 
 15 H       -2.1820    -2.6240     1.6050 H     1 <1>   0.0800 
 16 H        2.0030    -1.5800    -0.3750 H     1 <1>   0.0800 
 17 H        1.7700    -2.6870    -1.7080 H     1 <1>   0.0800 
 18 H       -2.8110    -2.7390    -1.2490 H     1 <1>   0.0800 
 19 H       -2.4930    -4.1000    -0.1750 H     1 <1>   0.0800 
 20 H        1.9000    -4.6040    -0.1410 H     1 <1>   0.0800 
 21 H        2.1330    -3.4960     1.1940 H     1 <1>   0.0800 
 22 H        4.2420    -2.7040     0.1640 H     1 <1>   0.0800 
 23 H        4.0100    -3.8080    -1.1660 H     1 <1>   0.0800 
@<TRIPOS>BOND
  1   1   2  2   
  2   2   3  am  
  3   2   4  1   
  4   3   5  am  
  5   3   6  1   
  6   4   7  1   
  7   4  14  1   
  8   4  15  1   
  9   5   7  1   
 10   5   8  2   
 11   6   9  1   
 12   6  16  1   
 13   6  17  1   
 14   7  18  1   
 15   7  19  1   
 16   9  10  1   
 17   9  20  1   
 18   9  21  1   
 19  10  11  1   
 20  10  22  1   
 21  10  23  1   
 22  11  12  ar  
 23  11  13  ar  
@<TRIPOS>SUBSTRUCTURE
  1 ****   6 GROUP 4 **** **** 0

# MOE 2024.06 (io_trps.svl 2023.06)
