@<TRIPOS>MOLECULE
5-(Morpholine-4-carbonyl)-1-(toluene-4-sulfonyl)-pyrrolidin-2-one
44 46 1 0 0 
SMALL
USER_CHARGES


@<TRIPOS>ATOM
  1 S        0.0950     0.9330    -1.7450 S.o2  1 <1>   1.4470 
  2 O        1.3510     0.7670    -2.4420 O.2   1 <1>  -0.6500 
  3 O       -1.0090     1.5360    -2.4510 O.2   1 <1>  -0.6500 
  4 N        0.4690     1.9780    -0.4340 N.am  1 <1>  -0.7300 
  5 C       -0.3870    -0.6220    -0.9460 C.ar  1 <1>  -0.0090 
  6 C       -0.4010     2.3100     0.5210 C.2   1 <1>   0.7450 
  7 C        1.8640     2.2870    -0.0700 C.3   1 <1>   0.3370 
  8 C        0.5600    -1.5870    -0.6220 C.ar  1 <1>  -0.1500 
  9 C       -1.7110    -0.8810    -0.6140 C.ar  1 <1>  -0.1500 
 10 O       -1.5710     2.0340     0.5490 O.2   1 <1>  -0.5700 
 11 C        0.2770     3.1020     1.6050 C.3   1 <1>  -0.0990 
 12 C        2.6370     1.0480     0.4590 C.2   1 <1>   0.5690 
 13 C        1.6820     3.3520     1.0300 C.3   1 <1>  -0.1600 
 14 C        0.1990    -2.7680     0.0030 C.ar  1 <1>  -0.1500 
 15 C       -2.0800    -2.0600     0.0100 C.ar  1 <1>  -0.1500 
 16 O        2.2500     0.5730     1.5040 O.2   1 <1>  -0.5700 
 17 N        3.7170     0.4940    -0.1940 N.am  1 <1>  -0.6600 
 18 C       -1.1250    -3.0120     0.3200 C.ar  1 <1>  -0.1430 
 19 C        4.4630    -0.6610     0.3960 C.3   1 <1>   0.1400 
 20 C        4.2240     0.8490    -1.5590 C.3   1 <1>   0.1400 
 21 C       -1.5280    -4.3030     1.0090 C.3   1 <1>  -0.0970 
 22 C        5.9810    -0.4380     0.2990 C.3   1 <1>   0.1200 
 23 C        5.7560     0.9870    -1.5540 C.3   1 <1>   0.1200 
 24 O        6.3560    -0.1580    -1.0200 O.3   1 <1>  -0.5600 
 25 H        2.3660     2.7290    -0.9080 H     1 <1>   0.0800 
 26 H        1.5950    -1.4140    -0.8600 H     1 <1>   0.1500 
 27 H       -2.4650    -0.1440    -0.8420 H     1 <1>   0.1500 
 28 H        0.3240     2.4980     2.4930 H     1 <1>   0.0800 
 29 H       -0.2520     4.0150     1.8030 H     1 <1>   0.0800 
 30 H        1.7170     4.3270     0.5760 H     1 <1>   0.0800 
 31 H        2.4470     3.2960     1.7850 H     1 <1>   0.0800 
 32 H        0.9560    -3.4940     0.2430 H     1 <1>   0.1500 
 33 H       -3.1140    -2.2280     0.2550 H     1 <1>   0.1500 
 34 H        4.2040    -1.5590    -0.1370 H     1 <1>   0.0800 
 35 H        4.1970    -0.8030     1.4290 H     1 <1>   0.0800 
 36 H        3.7950     1.7610    -1.9230 H     1 <1>   0.0800 
 37 H        3.9490     0.0670    -2.2470 H     1 <1>   0.0800 
 38 H       -0.8230    -5.0850     0.7910 H     1 <1>   0.0800 
 39 H       -2.5000    -4.6190     0.6730 H     1 <1>   0.0800 
 40 H       -1.5610    -4.1510     2.0730 H     1 <1>   0.0800 
 41 H        6.5060    -1.3230     0.6090 H     1 <1>   0.0800 
 42 H        6.2840     0.3820     0.9270 H     1 <1>   0.0800 
 43 H        6.0610     1.8390    -0.9720 H     1 <1>   0.0800 
 44 H        6.1200     1.1060    -2.5590 H     1 <1>   0.0800 
@<TRIPOS>BOND
  1   1   2  2   
  2   1   3  2   
  3   1   4  am  
  4   1   5  1   
  5   4   6  am  
  6   4   7  1   
  7   5   8  ar  
  8   5   9  ar  
  9   6  10  2   
 10   6  11  1   
 11   7  12  1   
 12   7  13  1   
 13   7  25  1   
 14   8  14  ar  
 15   8  26  1   
 16   9  15  ar  
 17   9  27  1   
 18  11  13  1   
 19  11  28  1   
 20  11  29  1   
 21  12  16  2   
 22  12  17  am  
 23  13  30  1   
 24  13  31  1   
 25  14  18  ar  
 26  14  32  1   
 27  15  18  ar  
 28  15  33  1   
 29  17  19  1   
 30  17  20  1   
 31  18  21  1   
 32  19  22  1   
 33  19  34  1   
 34  19  35  1   
 35  20  23  1   
 36  20  36  1   
 37  20  37  1   
 38  21  38  1   
 39  21  39  1   
 40  21  40  1   
 41  22  24  1   
 42  22  41  1   
 43  22  42  1   
 44  23  24  1   
 45  23  43  1   
 46  23  44  1   
@<TRIPOS>SUBSTRUCTURE
  1 ****  12 GROUP 4 **** **** 0

# MOE 2024.06 (io_trps.svl 2023.06)
