@<TRIPOS>MOLECULE
Furan-2-carboxylic acid {2-[2-(cyclohexanecarbonyl-amino)-ethyl]-1-methyl-1H-ben
55 58 1 0 0 
SMALL
USER_CHARGES


@<TRIPOS>ATOM
  1 O        0.3940     0.6990    -1.7300 O.2   1 <1>  -0.5700 
  2 C        0.4710     1.4170    -0.7500 C.2   1 <1>   0.7150 
  3 N        1.6870     1.6130    -0.1370 N.am  1 <1>  -0.5470 
  4 C       -0.6920     2.0910    -0.2100 C.2   1 <1>   0.0550 
  5 C        2.9550     1.0490    -0.3690 C.ar  1 <1>   0.1170 
  6 O       -1.8590     2.0690    -0.8490 O.3   1 <1>  -0.2800 
  7 C       -0.8520     2.8170     0.9350 C.2   1 <1>  -0.1500 
  8 C        4.0770     1.7580     0.0160 C.ar  1 <1>  -0.1500 
  9 C        3.1200    -0.2200    -0.9540 C.ar  1 <1>  -0.1500 
 10 C       -2.7430     2.7490    -0.1570 C.2   1 <1>  -0.0100 
 11 C       -2.1810     3.2430     0.9660 C.2   1 <1>  -0.1500 
 12 C        5.3440     1.2190    -0.1840 C.ar  1 <1>   0.2270 
 13 C        4.3690    -0.7610    -1.1600 C.ar  1 <1>  -0.1500 
 14 N        6.5580     1.7470     0.1280 N.2   1 <1>  -0.5650 
 15 C        5.4890    -0.0240    -0.7680 C.ar  1 <1>  -0.1520 
 16 C        7.4010     0.8560    -0.2620 C.2   1 <1>   0.0060 
 17 N        6.8300    -0.2490    -0.8230 N.pl3 1 <1>   0.0480 
 18 C        8.9010     1.0110    -0.1020 C.3   1 <1>   0.0200 
 19 C        7.4910    -1.4600    -1.3550 C.3   1 <1>   0.0160 
 20 C        9.3840     0.1950     1.0990 C.3   1 <1>   0.1400 
 21 N       10.8260    -0.1210     0.9610 N.am  1 <1>  -0.7300 
 22 C       11.3030    -1.1560     0.2200 C.2   1 <1>   0.5690 
 23 O       10.5600    -1.8650    -0.4180 O.2   1 <1>  -0.5700 
 24 C       12.8110    -1.4040     0.1890 C.3   1 <1>  -0.0190 
 25 C       13.3880    -1.1560    -1.2180 C.3   1 <1>  -0.1600 
 26 C       13.1590    -2.8250     0.6750 C.3   1 <1>  -0.1600 
 27 C       14.9010    -1.4120    -1.2610 C.3   1 <1>  -0.1600 
 28 C       14.6720    -3.0810     0.6320 C.3   1 <1>  -0.1600 
 29 C       15.2370    -2.8270    -0.7720 C.3   1 <1>  -0.1600 
 30 H        1.6800     2.3570     0.5550 H     1 <1>   0.3700 
 31 H       -0.1260     3.0380     1.6960 H     1 <1>   0.1500 
 32 H        4.0110     2.7280     0.4670 H     1 <1>   0.1500 
 33 H        2.2520    -0.7830    -1.2460 H     1 <1>   0.1500 
 34 H       -3.7480     2.8330    -0.5340 H     1 <1>   0.1500 
 35 H       -2.6390     3.8380     1.7360 H     1 <1>   0.1500 
 36 H        4.4830    -1.7300    -1.6110 H     1 <1>   0.1500 
 37 H        9.1390     2.0480     0.0500 H     1 <1>   0.0800 
 38 H        9.3860     0.6830    -1.0030 H     1 <1>   0.0800 
 39 H        6.8240    -1.9760    -2.0190 H     1 <1>   0.0800 
 40 H        7.7590    -2.1080    -0.5400 H     1 <1>   0.0800 
 41 H        8.3780    -1.1850    -1.8940 H     1 <1>   0.0800 
 42 H        8.8360    -0.7300     1.1520 H     1 <1>   0.0800 
 43 H        9.2050     0.7380     2.0110 H     1 <1>   0.0800 
 44 H       11.4720     0.4860     1.4680 H     1 <1>   0.3700 
 45 H       13.2760    -0.7070     0.8620 H     1 <1>   0.0800 
 46 H       13.1860    -0.1420    -1.5180 H     1 <1>   0.0800 
 47 H       12.8980    -1.8090    -1.9210 H     1 <1>   0.0800 
 48 H       12.6610    -3.5460     0.0480 H     1 <1>   0.0800 
 49 H       12.7990    -2.9620     1.6790 H     1 <1>   0.0800 
 50 H       15.4050    -0.6910    -0.6410 H     1 <1>   0.0800 
 51 H       15.2580    -1.2870    -2.2690 H     1 <1>   0.0800 
 52 H       14.8730    -4.0990     0.9210 H     1 <1>   0.0800 
 53 H       15.1660    -2.4350     1.3380 H     1 <1>   0.0800 
 54 H       16.3050    -2.9610    -0.7600 H     1 <1>   0.0800 
 55 H       14.8230    -3.5470    -1.4570 H     1 <1>   0.0800 
@<TRIPOS>BOND
  1   1   2  2   
  2   2   3  am  
  3   2   4  1   
  4   3   5  1   
  5   3  30  1   
  6   4   6  1   
  7   4   7  2   
  8   5   8  ar  
  9   5   9  ar  
 10   6  10  1   
 11   7  11  1   
 12   7  31  1   
 13   8  12  ar  
 14   8  32  1   
 15   9  13  ar  
 16   9  33  1   
 17  10  11  2   
 18  10  34  1   
 19  11  35  1   
 20  12  14  1   
 21  12  15  ar  
 22  13  15  ar  
 23  13  36  1   
 24  14  16  2   
 25  15  17  1   
 26  16  17  1   
 27  16  18  1   
 28  17  19  1   
 29  18  20  1   
 30  18  37  1   
 31  18  38  1   
 32  19  39  1   
 33  19  40  1   
 34  19  41  1   
 35  20  21  1   
 36  20  42  1   
 37  20  43  1   
 38  21  22  am  
 39  21  44  1   
 40  22  23  2   
 41  22  24  1   
 42  24  25  1   
 43  24  26  1   
 44  24  45  1   
 45  25  27  1   
 46  25  46  1   
 47  25  47  1   
 48  26  28  1   
 49  26  48  1   
 50  26  49  1   
 51  27  29  1   
 52  27  50  1   
 53  27  51  1   
 54  28  29  1   
 55  28  52  1   
 56  28  53  1   
 57  29  54  1   
 58  29  55  1   
@<TRIPOS>SUBSTRUCTURE
  1 ****  17 GROUP 4 **** **** 0

# MOE 2024.06 (io_trps.svl 2023.06)
