@<TRIPOS>MOLECULE
3-(2-Chloro-benzyl)-1,6,7-trimethyl-8-(tetrahydro-furan-2-ylmethyl)-1H,8H-imidaz
56 60 1 0 0 
SMALL
USER_CHARGES


@<TRIPOS>ATOM
  1 CL       3.0650    -0.7810     1.8870 Cl    1 <1>  -0.1830 
  2 C        2.1580    -2.2370     1.5610 C.ar  1 <1>   0.1710 
  3 C        2.0600    -2.7420     0.2700 C.ar  1 <1>  -0.1500 
  4 C        1.5560    -2.8690     2.6330 C.ar  1 <1>  -0.1560 
  5 C        1.3390    -3.9130     0.0770 C.ar  1 <1>  -0.1560 
  6 C        2.7160    -2.0580    -0.9250 C.3   1 <1>   0.2780 
  7 C        0.8390    -4.0340     2.4240 C.ar  1 <1>  -0.1560 
  8 C        0.7340    -4.5530     1.1460 C.ar  1 <1>  -0.1560 
  9 N        4.1800    -2.3260    -0.9240 N.am  1 <1>  -0.4250 
 10 C        4.6220    -3.6280    -1.1050 C.2   1 <1>   0.6870 
 11 C        5.0640    -1.3090    -0.6070 C.2   1 <1>   0.7000 
 12 O        3.9120    -4.4420    -1.6590 O.2   1 <1>  -0.5740 
 13 N        5.8940    -3.9870    -0.6800 N.am  1 <1>  -0.4410 
 14 O        4.7400    -0.1400    -0.7350 O.2   1 <1>  -0.5740 
 15 C        6.3670    -1.6840    -0.1650 C.2   1 <1>   0.2710 
 16 C        6.7250    -2.9910    -0.2060 C.2   1 <1>   0.4210 
 17 C        6.3530    -5.4040    -0.7580 C.3   1 <1>   0.0530 
 18 N        7.4820    -0.9860     0.3320 N.pl3 1 <1>  -0.6330 
 19 N        8.0000    -3.1170     0.2540 N.pl3 1 <1>  -0.7030 
 20 C        8.4230    -1.8920     0.5590 C.cat 1 <1>   1.0690 
 21 C        8.0140     0.2360     0.6780 C.2   1 <1>   0.2350 
 22 N        9.5480    -1.3400     1.0310 N.pl3 1 <1>  -0.5710 
 23 C        9.2820     0.0210     1.1080 C.2   1 <1>   0.1580 
 24 C        7.1860     1.5000     0.5440 C.3   1 <1>  -0.1090 
 25 C       10.7810    -2.0610     1.4820 C.3   1 <1>   0.1610 
 26 C       10.3170     1.0140     1.6100 C.3   1 <1>  -0.1090 
 27 C       11.4040    -2.9610     0.3970 C.3   1 <1>   0.1940 
 28 O       10.5300    -3.9840     0.0270 O.3   1 <1>  -0.5640 
 29 C       12.6530    -3.6940     0.8650 C.3   1 <1>  -0.1660 
 30 C       11.2500    -5.0200    -0.5700 C.3   1 <1>   0.1130 
 31 C       12.6600    -4.9490     0.0080 C.3   1 <1>  -0.1660 
 32 H        1.6470    -2.4530     3.6200 H     1 <1>   0.1440 
 33 H        1.2480    -4.3400    -0.9080 H     1 <1>   0.1440 
 34 H        2.5150    -1.0010    -0.8880 H     1 <1>   0.0730 
 35 H        2.2930    -2.4320    -1.8410 H     1 <1>   0.0730 
 36 H        0.3660    -4.5340     3.2510 H     1 <1>   0.1440 
 37 H        0.1790    -5.4610     0.9800 H     1 <1>   0.1440 
 38 H        5.5090    -6.0730    -0.7300 H     1 <1>   0.0730 
 39 H        6.9940    -5.6390     0.0740 H     1 <1>   0.0730 
 40 H        6.8880    -5.5620    -1.6780 H     1 <1>   0.0730 
 41 H        8.6820    -3.8860     0.1920 H     1 <1>   0.4450 
 42 H        6.9020     1.6440    -0.4830 H     1 <1>   0.0730 
 43 H        7.7370     2.3620     0.8710 H     1 <1>   0.0730 
 44 H        6.2930     1.4180     1.1370 H     1 <1>   0.0730 
 45 H       10.5430    -2.6620     2.3440 H     1 <1>   0.0730 
 46 H       11.5220    -1.3450     1.7870 H     1 <1>   0.0730 
 47 H       10.5920     0.7820     2.6240 H     1 <1>   0.0730 
 48 H        9.9300     2.0170     1.5870 H     1 <1>   0.0730 
 49 H       11.1950     0.9780     0.9920 H     1 <1>   0.0730 
 50 H       11.6320    -2.3850    -0.4850 H     1 <1>   0.0730 
 51 H       12.5640    -3.9620     1.9040 H     1 <1>   0.0730 
 52 H       13.5410    -3.1020     0.7280 H     1 <1>   0.0730 
 53 H       11.2610    -4.8580    -1.6350 H     1 <1>   0.0730 
 54 H       10.7690    -5.9570    -0.3440 H     1 <1>   0.0730 
 55 H       12.8850    -5.8240     0.5920 H     1 <1>   0.0730 
 56 H       13.3780    -4.8720    -0.7910 H     1 <1>   0.0730 
@<TRIPOS>BOND
  1   1   2  1   
  2   2   3  ar  
  3   2   4  ar  
  4   3   5  ar  
  5   3   6  1   
  6   4   7  ar  
  7   4  32  1   
  8   5   8  ar  
  9   5  33  1   
 10   6   9  1   
 11   6  34  1   
 12   6  35  1   
 13   7   8  ar  
 14   7  36  1   
 15   8  37  1   
 16   9  10  am  
 17   9  11  am  
 18  10  12  2   
 19  10  13  am  
 20  11  14  2   
 21  11  15  1   
 22  13  16  1   
 23  13  17  1   
 24  15  16  2   
 25  15  18  1   
 26  16  19  1   
 27  17  38  1   
 28  17  39  1   
 29  17  40  1   
 30  18  20  ar  
 31  18  21  1   
 32  19  20  ar  
 33  19  41  1   
 34  20  22  ar  
 35  21  23  2   
 36  21  24  1   
 37  22  23  1   
 38  22  25  1   
 39  23  26  1   
 40  24  42  1   
 41  24  43  1   
 42  24  44  1   
 43  25  27  1   
 44  25  45  1   
 45  25  46  1   
 46  26  47  1   
 47  26  48  1   
 48  26  49  1   
 49  27  28  1   
 50  27  29  1   
 51  27  50  1   
 52  28  30  1   
 53  29  31  1   
 54  29  51  1   
 55  29  52  1   
 56  30  31  1   
 57  30  53  1   
 58  30  54  1   
 59  31  55  1   
 60  31  56  1   
@<TRIPOS>SUBSTRUCTURE
  1 ****  16 GROUP 4 **** **** 0

# MOE 2024.06 (io_trps.svl 2023.06)
