@<TRIPOS>MOLECULE
8-(2-Methoxy-ethyl)-1,7-dimethyl-3-(3-phenyl-propyl)-1H,8H-imidazo[2,1-f]purine-
55 58 1 0 0 
SMALL
USER_CHARGES


@<TRIPOS>ATOM
  1 O        1.2910     0.6840    -3.0200 O.2   1 <1>  -0.5740 
  2 C        2.0260     1.3050    -2.2800 C.2   1 <1>   0.6870 
  3 N        1.5530     2.4200    -1.5940 N.am  1 <1>  -0.4250 
  4 N        3.3460     0.8990    -2.1260 N.am  1 <1>  -0.4410 
  5 C        2.3850     3.1640    -0.7680 C.2   1 <1>   0.7000 
  6 C        0.1140     2.8000    -1.7180 C.3   1 <1>   0.1340 
  7 C        4.1690     1.6510    -1.3120 C.2   1 <1>   0.4210 
  8 C        3.8690    -0.2930    -2.8580 C.3   1 <1>   0.0530 
  9 O        1.9710     4.1470    -0.1750 O.2   1 <1>  -0.5740 
 10 C        3.7400     2.7430    -0.6350 C.2   1 <1>   0.2710 
 11 C       -0.7060     2.0940    -0.6350 C.3   1 <1>  -0.1660 
 12 N        5.4880     1.4480    -1.0360 N.pl3 1 <1>  -0.7030 
 13 N        4.8440     3.2120     0.0970 N.pl3 1 <1>  -0.6330 
 14 C       -2.1960     2.4280    -0.7560 C.3   1 <1>  -0.0240 
 15 C        5.8530     2.3970    -0.1770 C.cat 1 <1>   1.0690 
 16 C        5.3160     4.1440     0.9990 C.2   1 <1>   0.2230 
 17 C       -2.9810     1.7220     0.3370 C.ar  1 <1>  -0.1500 
 18 N        6.9660     2.7390     0.4890 N.pl3 1 <1>  -0.5710 
 19 C        6.6160     3.8560     1.2380 C.2   1 <1>   0.1580 
 20 C       -3.3900     0.4090     0.1620 C.ar  1 <1>  -0.1570 
 21 C       -3.2900     2.3790     1.5170 C.ar  1 <1>  -0.1570 
 22 C        8.3170     2.1090     0.3580 C.3   1 <1>   0.1610 
 23 C        7.5950     4.5740     2.1480 C.3   1 <1>  -0.1090 
 24 C       -4.1010    -0.2400     1.1570 C.ar  1 <1>  -0.1570 
 25 C       -4.0020     1.7320     2.5130 C.ar  1 <1>  -0.1570 
 26 C        8.3330     0.6120     0.7090 C.3   1 <1>   0.1130 
 27 C       -4.4080     0.4210     2.3330 C.ar  1 <1>  -0.1570 
 28 O        7.5010    -0.1020    -0.1600 O.3   1 <1>  -0.5640 
 29 C        7.5610    -1.4830     0.0360 C.3   1 <1>   0.0330 
 30 H       -0.2560     2.5260    -2.6920 H     1 <1>   0.0730 
 31 H        0.0050     3.8670    -1.6210 H     1 <1>   0.0730 
 32 H        3.0750    -0.9980    -3.0410 H     1 <1>   0.0730 
 33 H        4.6300    -0.7880    -2.2830 H     1 <1>   0.0730 
 34 H        4.2790     0.0160    -3.8040 H     1 <1>   0.0730 
 35 H       -0.3610     2.3980     0.3380 H     1 <1>   0.0730 
 36 H       -0.5830     1.0280    -0.7270 H     1 <1>   0.0730 
 37 H        6.1030     0.6350    -1.1770 H     1 <1>   0.4450 
 38 H       -2.5660     2.1170    -1.7170 H     1 <1>   0.0730 
 39 H       -2.3420     3.4910    -0.6750 H     1 <1>   0.0730 
 40 H        4.6930     4.9320     1.3960 H     1 <1>   0.1430 
 41 H       -3.1540    -0.1130    -0.7480 H     1 <1>   0.1430 
 42 H       -2.9770     3.3970     1.6680 H     1 <1>   0.1430 
 43 H        9.0110     2.6130     1.0070 H     1 <1>   0.0730 
 44 H        8.6730     2.2370    -0.6500 H     1 <1>   0.0730 
 45 H        7.9650     3.9020     2.9010 H     1 <1>   0.0730 
 46 H        7.1120     5.4020     2.6380 H     1 <1>   0.0730 
 47 H        8.4240     4.9540     1.5780 H     1 <1>   0.0730 
 48 H       -4.4150    -1.2590     1.0140 H     1 <1>   0.1430 
 49 H       -4.2390     2.2470     3.4260 H     1 <1>   0.1430 
 50 H        8.0000     0.4570     1.7210 H     1 <1>   0.0730 
 51 H        9.3370     0.2330     0.6070 H     1 <1>   0.0730 
 52 H       -4.9600    -0.0830     3.1060 H     1 <1>   0.1430 
 53 H        6.8910    -1.9580    -0.6590 H     1 <1>   0.0730 
 54 H        7.2620    -1.7160     1.0440 H     1 <1>   0.0730 
 55 H        8.5660    -1.8260    -0.1440 H     1 <1>   0.0730 
@<TRIPOS>BOND
  1   1   2  2   
  2   2   3  am  
  3   2   4  am  
  4   3   5  am  
  5   3   6  1   
  6   4   7  1   
  7   4   8  1   
  8   5   9  2   
  9   5  10  1   
 10   6  11  1   
 11   6  30  1   
 12   6  31  1   
 13   7  10  2   
 14   7  12  1   
 15   8  32  1   
 16   8  33  1   
 17   8  34  1   
 18  10  13  1   
 19  11  14  1   
 20  11  35  1   
 21  11  36  1   
 22  12  15  ar  
 23  12  37  1   
 24  13  15  ar  
 25  13  16  1   
 26  14  17  1   
 27  14  38  1   
 28  14  39  1   
 29  15  18  ar  
 30  16  19  2   
 31  16  40  1   
 32  17  20  ar  
 33  17  21  ar  
 34  18  19  1   
 35  18  22  1   
 36  19  23  1   
 37  20  24  ar  
 38  20  41  1   
 39  21  25  ar  
 40  21  42  1   
 41  22  26  1   
 42  22  43  1   
 43  22  44  1   
 44  23  45  1   
 45  23  46  1   
 46  23  47  1   
 47  24  27  ar  
 48  24  48  1   
 49  25  27  ar  
 50  25  49  1   
 51  26  28  1   
 52  26  50  1   
 53  26  51  1   
 54  27  52  1   
 55  28  29  1   
 56  29  53  1   
 57  29  54  1   
 58  29  55  1   
@<TRIPOS>SUBSTRUCTURE
  1 ****   5 GROUP 4 **** **** 0

# MOE 2024.06 (io_trps.svl 2023.06)
