@<TRIPOS>MOLECULE
N-[2-(4-Ethyl-piperazin-1-yl)-2-oxo-ethyl]-3,4-dimethoxy-N-phenyl-benzenesulfona
61 63 1 0 0 
SMALL
USER_CHARGES


@<TRIPOS>ATOM
  1 S        0.7740     0.2960    -0.9640 S.o2  1 <1>   1.4470 
  2 O        1.3140     0.7170    -2.2400 O.2   1 <1>  -0.6500 
  3 O        1.6910    -0.1490     0.0610 O.2   1 <1>  -0.6500 
  4 N       -0.0290     1.6910    -0.3310 N.am  1 <1>  -0.6930 
  5 C       -0.5830    -0.8780    -1.2110 C.ar  1 <1>  -0.0090 
  6 C       -0.9080     1.5560     0.7350 C.ar  1 <1>   0.1990 
  7 C        0.6850     2.9970    -0.4780 C.3   1 <1>   0.2570 
  8 C       -1.1130    -1.5840    -0.1380 C.ar  1 <1>  -0.1500 
  9 C       -1.1530    -1.0750    -2.4620 C.ar  1 <1>  -0.1500 
 10 C       -2.2770     1.6170     0.5110 C.ar  1 <1>  -0.1500 
 11 C       -0.4510     1.3380     2.0300 C.ar  1 <1>  -0.1500 
 12 C        1.9120     3.1500     0.4380 C.2   1 <1>   0.5690 
 13 C       -2.1880    -2.4560    -0.2830 C.ar  1 <1>   0.0830 
 14 C       -2.2070    -1.9520    -2.6330 C.ar  1 <1>  -0.1500 
 15 C       -3.1720     1.4640     1.5550 C.ar  1 <1>  -0.1500 
 16 C       -1.3420     1.1870     3.0770 C.ar  1 <1>  -0.1500 
 17 O        1.7410     3.7120     1.4940 O.2   1 <1>  -0.5700 
 18 N        3.1650     2.6770     0.1130 N.am  1 <1>  -0.6600 
 19 O       -2.7160    -3.0890     0.8030 O.3   1 <1>  -0.3620 
 20 C       -2.7320    -2.6550    -1.5620 C.ar  1 <1>   0.0830 
 21 C       -2.7050     1.2500     2.8400 C.ar  1 <1>  -0.1500 
 22 C        3.6300     2.2860    -1.2540 C.3   1 <1>   0.1400 
 23 C        4.1490     2.3800     1.2020 C.3   1 <1>   0.1400 
 24 C       -2.5600    -2.5630     2.1050 C.3   1 <1>   0.0400 
 25 O       -3.7620    -3.4890    -1.8800 O.3   1 <1>  -0.3630 
 26 C        5.0390     2.8350    -1.5500 C.3   1 <1>   0.3430 
 27 C        5.5420     2.9420     0.8710 C.3   1 <1>   0.3430 
 28 C       -4.0790    -4.6190    -1.0990 C.3   1 <1>   0.0400 
 29 N        6.0300     2.4740    -0.4770 N.4   1 <1>  -0.9590 
 30 C        7.3800     3.0030    -0.8060 C.3   1 <1>   0.3430 
 31 C        8.4270     2.3150     0.0610 C.3   1 <1>  -0.2400 
 32 H       -0.0040     3.7840    -0.2280 H     1 <1>   0.0800 
 33 H        0.9620     3.1410    -1.5040 H     1 <1>   0.0800 
 34 H       -0.6630    -1.4310     0.8260 H     1 <1>   0.1500 
 35 H       -0.7700    -0.5380    -3.3140 H     1 <1>   0.1500 
 36 H       -2.6400     1.7810    -0.4880 H     1 <1>   0.1500 
 37 H        0.6060     1.2890     2.2180 H     1 <1>   0.1500 
 38 H       -2.6340    -2.0990    -3.6090 H     1 <1>   0.1500 
 39 H       -4.2310     1.5120     1.3680 H     1 <1>   0.1500 
 40 H       -0.9750     1.0260     4.0760 H     1 <1>   0.1500 
 41 H       -3.3990     1.1380     3.6550 H     1 <1>   0.1500 
 42 H        2.9570     2.6570    -2.0050 H     1 <1>   0.0800 
 43 H        3.6500     1.2120    -1.3270 H     1 <1>   0.0800 
 44 H        4.2090     1.3140     1.3350 H     1 <1>   0.0800 
 45 H        3.8220     2.8000     2.1380 H     1 <1>   0.0800 
 46 H       -3.2280    -3.0910     2.7600 H     1 <1>   0.0800 
 47 H       -2.8100    -1.5170     2.0930 H     1 <1>   0.0800 
 48 H       -1.5450    -2.7130     2.4250 H     1 <1>   0.0800 
 49 H        4.9750     3.9070    -1.6370 H     1 <1>   0.0800 
 50 H        5.3710     2.4460    -2.5000 H     1 <1>   0.0800 
 51 H        6.2290     2.6340     1.6410 H     1 <1>   0.0800 
 52 H        5.4870     4.0180     0.8870 H     1 <1>   0.0800 
 53 H       -4.7040    -5.2660    -1.6850 H     1 <1>   0.0800 
 54 H       -4.6120    -4.2960    -0.2220 H     1 <1>   0.0800 
 55 H       -3.1700    -5.1270    -0.8290 H     1 <1>   0.0800 
 56 H        6.0900     1.4470    -0.4450 H     1 <1>   0.4500 
 57 H        7.4110     4.0700    -0.6510 H     1 <1>   0.0800 
 58 H        7.6040     2.8060    -1.8420 H     1 <1>   0.0800 
 59 H        8.3050     2.5610     1.1000 H     1 <1>   0.0800 
 60 H        9.4050     2.6500    -0.2380 H     1 <1>   0.0800 
 61 H        8.3910     1.2470    -0.0670 H     1 <1>   0.0800 
@<TRIPOS>BOND
  1   1   2  2   
  2   1   3  2   
  3   1   4  am  
  4   1   5  1   
  5   4   6  1   
  6   4   7  1   
  7   5   8  ar  
  8   5   9  ar  
  9   6  10  ar  
 10   6  11  ar  
 11   7  12  1   
 12   7  32  1   
 13   7  33  1   
 14   8  13  ar  
 15   8  34  1   
 16   9  14  ar  
 17   9  35  1   
 18  10  15  ar  
 19  10  36  1   
 20  11  16  ar  
 21  11  37  1   
 22  12  17  2   
 23  12  18  am  
 24  13  19  1   
 25  13  20  ar  
 26  14  20  ar  
 27  14  38  1   
 28  15  21  ar  
 29  15  39  1   
 30  16  21  ar  
 31  16  40  1   
 32  18  22  1   
 33  18  23  1   
 34  19  24  1   
 35  20  25  1   
 36  21  41  1   
 37  22  26  1   
 38  22  42  1   
 39  22  43  1   
 40  23  27  1   
 41  23  44  1   
 42  23  45  1   
 43  24  46  1   
 44  24  47  1   
 45  24  48  1   
 46  25  28  1   
 47  26  29  1   
 48  26  49  1   
 49  26  50  1   
 50  27  29  1   
 51  27  51  1   
 52  27  52  1   
 53  28  53  1   
 54  28  54  1   
 55  28  55  1   
 56  29  30  1   
 57  29  56  1   
 58  30  31  1   
 59  30  57  1   
 60  30  58  1   
 61  31  59  1   
 62  31  60  1   
 63  31  61  1   
@<TRIPOS>SUBSTRUCTURE
  1 ****   1 GROUP 4 **** **** 0

# MOE 2024.06 (io_trps.svl 2023.06)
