@<TRIPOS>MOLECULE
1-(4-Ethoxy-3-methyl-benzenesulfonyl)-piperidine-4-carboxylic acid allylamide
51 52 1 0 0 
SMALL
USER_CHARGES


@<TRIPOS>ATOM
  1 S       -0.1530    -0.1190     2.2330 S.o2  1 <1>   1.4470 
  2 O        0.0870    -1.2480     3.1050 O.2   1 <1>  -0.6500 
  3 O       -0.4390     1.1750     2.8170 O.2   1 <1>  -0.6500 
  4 N        1.2380     0.0850     1.2830 N.am  1 <1>  -0.8490 
  5 C       -1.4210    -0.5610     1.0150 C.ar  1 <1>  -0.0090 
  6 C        2.4500     0.0840     2.1050 C.3   1 <1>   0.1960 
  7 C        1.1570     1.2860     0.4440 C.3   1 <1>   0.1960 
  8 C       -2.6270     0.1260     0.9430 C.ar  1 <1>  -0.1500 
  9 C       -1.2150    -1.6010     0.1180 C.ar  1 <1>  -0.1500 
 10 C        3.6970     0.1210     1.2180 C.3   1 <1>  -0.1600 
 11 C        2.3550     1.3510    -0.5050 C.3   1 <1>  -0.1600 
 12 C       -3.5970    -0.2000     0.0090 C.ar  1 <1>  -0.1430 
 13 C       -2.1710    -1.9420    -0.8210 C.ar  1 <1>  -0.1500 
 14 C        3.6820     1.3330     0.2720 C.3   1 <1>  -0.0190 
 15 C       -3.3720    -1.2430    -0.8840 C.ar  1 <1>   0.0820 
 16 C       -4.9020     0.5840    -0.0290 C.3   1 <1>  -0.0970 
 17 C        4.8890     1.3290    -0.6650 C.2   1 <1>   0.5690 
 18 O       -4.3520    -1.5230    -1.7830 O.3   1 <1>  -0.3630 
 19 O        4.9990     0.4590    -1.4940 O.2   1 <1>  -0.5700 
 20 N        5.8140     2.3130    -0.5420 N.am  1 <1>  -0.7300 
 21 C       -4.3130    -2.6210    -2.6690 C.3   1 <1>   0.1200 
 22 C        7.0290     2.4190    -1.3600 C.3   1 <1>   0.2780 
 23 C       -4.6910    -3.8970    -1.9150 C.3   1 <1>  -0.2400 
 24 C        8.1120     3.0050    -0.4810 C.2   1 <1>  -0.2880 
 25 C        8.6980     4.1940    -0.6580 C.2   1 <1>  -0.3000 
 26 H        2.4830    -0.8130     2.7030 H     1 <1>   0.0800 
 27 H        2.4390     0.9310     2.7730 H     1 <1>   0.0800 
 28 H        1.1320     2.1680     1.0640 H     1 <1>   0.0800 
 29 H        0.2520     1.2610    -0.1410 H     1 <1>   0.0800 
 30 H       -2.8040     0.9330     1.6360 H     1 <1>   0.1500 
 31 H       -0.2870    -2.1490     0.1590 H     1 <1>   0.1500 
 32 H        3.7380    -0.7880     0.6420 H     1 <1>   0.0800 
 33 H        4.5760     0.1540     1.8370 H     1 <1>   0.0800 
 34 H        2.2940     2.2460    -1.0980 H     1 <1>   0.0800 
 35 H        2.3120     0.5100    -1.1760 H     1 <1>   0.0800 
 36 H       -1.9600    -2.7530    -1.4910 H     1 <1>   0.1500 
 37 H        3.7260     2.2240     0.8730 H     1 <1>   0.0800 
 38 H       -4.9220     1.3490     0.7250 H     1 <1>   0.0800 
 39 H       -5.7300    -0.0820     0.1350 H     1 <1>   0.0800 
 40 H       -5.0190     1.0460    -0.9930 H     1 <1>   0.0800 
 41 H        5.7150     3.0490     0.1550 H     1 <1>   0.3700 
 42 H       -3.3400    -2.6810    -3.1230 H     1 <1>   0.0800 
 43 H       -5.0350    -2.4280    -3.4420 H     1 <1>   0.0800 
 44 H        6.8370     3.0620    -2.2030 H     1 <1>   0.0800 
 45 H        7.3240     1.4490    -1.7260 H     1 <1>   0.0800 
 46 H       -3.9840    -4.1050    -1.1330 H     1 <1>   0.0800 
 47 H       -4.7010    -4.7300    -2.5940 H     1 <1>   0.0800 
 48 H       -5.6720    -3.7920    -1.4880 H     1 <1>   0.0800 
 49 H        8.3740     2.3440     0.3290 H     1 <1>   0.1500 
 50 H        9.4700     4.5840    -0.0150 H     1 <1>   0.1500 
 51 H        8.4620     4.8760    -1.4560 H     1 <1>   0.1500 
@<TRIPOS>BOND
  1   1   2  2   
  2   1   3  2   
  3   1   4  am  
  4   1   5  1   
  5   4   6  1   
  6   4   7  1   
  7   5   8  ar  
  8   5   9  ar  
  9   6  10  1   
 10   6  26  1   
 11   6  27  1   
 12   7  11  1   
 13   7  28  1   
 14   7  29  1   
 15   8  12  ar  
 16   8  30  1   
 17   9  13  ar  
 18   9  31  1   
 19  10  14  1   
 20  10  32  1   
 21  10  33  1   
 22  11  14  1   
 23  11  34  1   
 24  11  35  1   
 25  12  15  ar  
 26  12  16  1   
 27  13  15  ar  
 28  13  36  1   
 29  14  17  1   
 30  14  37  1   
 31  15  18  1   
 32  16  38  1   
 33  16  39  1   
 34  16  40  1   
 35  17  19  2   
 36  17  20  am  
 37  18  21  1   
 38  20  22  1   
 39  20  41  1   
 40  21  23  1   
 41  21  42  1   
 42  21  43  1   
 43  22  24  1   
 44  22  44  1   
 45  22  45  1   
 46  23  46  1   
 47  23  47  1   
 48  23  48  1   
 49  24  25  2   
 50  24  49  1   
 51  25  50  1   
 52  25  51  1   
@<TRIPOS>SUBSTRUCTURE
  1 ****   7 GROUP 4 **** **** 0

# MOE 2024.06 (io_trps.svl 2023.06)
