@<TRIPOS>MOLECULE
1-(5,6-Dimethyl-thieno[2,3-d]pyrimidin-4-yl)-piperidine-4-carboxylic acid
36 38 1 0 0 
SMALL
USER_CHARGES


@<TRIPOS>ATOM
  1 S        0.0980    -0.2420    -1.3460 S.3   1 <1>  -0.0800 
  2 C        1.3160     1.0190    -1.2020 C.ar  1 <1>   0.2970 
  3 C       -1.0560     0.6860    -0.3920 C.2   1 <1>  -0.1400 
  4 N        2.5170     0.8900    -1.7260 N.ar  1 <1>  -0.5670 
  5 C        0.8320     2.0900    -0.4860 C.ar  1 <1>   0.0000 
  6 C       -0.5230     1.8660    -0.0130 C.2   1 <1>  -0.1810 
  7 C       -2.3950     0.0090    -0.1670 C.3   1 <1>  -0.0600 
  8 C        3.2750     1.9410    -1.4900 C.ar  1 <1>   0.4700 
  9 C        1.7440     3.1480    -0.3580 C.ar  1 <1>   0.4100 
 10 C       -1.2350     2.8910     0.8570 C.3   1 <1>  -0.0590 
 11 N        2.9730     3.0500    -0.8360 N.ar  1 <1>  -0.6200 
 12 N        1.4240     4.3460     0.2400 N.pl3 1 <1>  -0.8380 
 13 C        2.3150     4.9190     1.2900 C.3   1 <1>   0.2090 
 14 C        0.6190     5.3340    -0.5300 C.3   1 <1>   0.2090 
 15 C        3.1610     6.0740     0.7460 C.3   1 <1>  -0.1600 
 16 C        1.4900     6.4720    -1.0640 C.3   1 <1>  -0.1600 
 17 C        2.2950     7.1460     0.0630 C.3   1 <1>  -0.1860 
 18 C        3.1290     8.3390    -0.3990 C.2   1 <1>   0.9060 
 19 O        3.3280     8.5300    -1.6040 O.co2 1 <1>  -0.9000 
 20 O        3.5700     9.1020     0.4690 O.co2 1 <1>  -0.9000 
 21 H       -2.8490    -0.2190    -1.1140 H     1 <1>   0.0800 
 22 H       -3.0620     0.6390     0.3890 H     1 <1>   0.0800 
 23 H       -2.2510    -0.9070     0.3770 H     1 <1>   0.0800 
 24 H        4.2760     1.8960    -1.8830 H     1 <1>   0.1500 
 25 H       -2.1250     2.4830     1.2950 H     1 <1>   0.0800 
 26 H       -1.5090     3.7450     0.2670 H     1 <1>   0.0800 
 27 H       -0.5870     3.2080     1.6540 H     1 <1>   0.0800 
 28 H        2.9640     4.1500     1.6730 H     1 <1>   0.0800 
 29 H        1.7060     5.2760     2.1010 H     1 <1>   0.0800 
 30 H       -0.1380     5.7440     0.1160 H     1 <1>   0.0800 
 31 H        0.1320     4.8430    -1.3540 H     1 <1>   0.0800 
 32 H        3.8760     5.6870     0.0410 H     1 <1>   0.0800 
 33 H        3.7120     6.5240     1.5530 H     1 <1>   0.0800 
 34 H        0.8710     7.2060    -1.5480 H     1 <1>   0.0800 
 35 H        2.1670     6.0810    -1.8050 H     1 <1>   0.0800 
 36 H        1.6050     7.5380     0.7860 H     1 <1>   0.0800 
@<TRIPOS>BOND
  1   1   2  1   
  2   1   3  1   
  3   2   4  ar  
  4   2   5  ar  
  5   3   6  2   
  6   3   7  1   
  7   4   8  ar  
  8   5   6  1   
  9   5   9  ar  
 10   6  10  1   
 11   7  21  1   
 12   7  22  1   
 13   7  23  1   
 14   8  11  ar  
 15   8  24  1   
 16   9  11  ar  
 17   9  12  1   
 18  10  25  1   
 19  10  26  1   
 20  10  27  1   
 21  12  13  1   
 22  12  14  1   
 23  13  15  1   
 24  13  28  1   
 25  13  29  1   
 26  14  16  1   
 27  14  30  1   
 28  14  31  1   
 29  15  17  1   
 30  15  32  1   
 31  15  33  1   
 32  16  17  1   
 33  16  34  1   
 34  16  35  1   
 35  17  18  1   
 36  17  36  1   
 37  18  19  ar  
 38  18  20  ar  
@<TRIPOS>SUBSTRUCTURE
  1 ****  12 GROUP 4 **** **** 0

# MOE 2024.06 (io_trps.svl 2023.06)
