@<TRIPOS>MOLECULE
3-Ethyl-1,7-dimethyl-8-(tetrahydro-furan-2-ylmethyl)-1H,8H-imidazo[2,1-f]purine-
46 49 1 0 0 
SMALL
USER_CHARGES


@<TRIPOS>ATOM
  1 O        1.7810    -0.6040     0.5240 O.2   1 <1>  -0.5750 
  2 C        2.4760     0.3900     0.4800 C.2   1 <1>   0.6860 
  3 N        1.8960     1.6500     0.3510 N.am  1 <1>  -0.4260 
  4 N        3.8580     0.2650     0.5660 N.am  1 <1>  -0.4420 
  5 C        2.6710     2.8020     0.3330 C.2   1 <1>   0.6990 
  6 C        0.4140     1.7630     0.2100 C.3   1 <1>   0.1320 
  7 C        4.6190     1.4160     0.5640 C.2   1 <1>   0.4200 
  8 C        4.4980    -1.0770     0.7010 C.3   1 <1>   0.0510 
  9 O        2.1630     3.9070     0.2270 O.2   1 <1>  -0.5750 
 10 C        4.0840     2.6550     0.4440 C.2   1 <1>   0.2700 
 11 C        0.0280     1.7140    -1.2680 C.3   1 <1>  -0.2470 
 12 N        5.9740     1.5250     0.6600 N.pl3 1 <1>  -0.7040 
 13 N        5.1640     3.5530     0.4520 N.pl3 1 <1>  -0.6340 
 14 C        6.2640     2.8220     0.5760 C.cat 1 <1>   1.0690 
 15 C        5.5670     4.8700     0.3620 C.2   1 <1>   0.2220 
 16 N        7.3690     3.5820     0.5770 N.pl3 1 <1>  -0.5720 
 17 C        6.9170     4.8880     0.4410 C.2   1 <1>   0.1570 
 18 C        8.7780     3.1200     0.7890 C.3   1 <1>   0.1600 
 19 C        7.8530     6.0810     0.3980 C.3   1 <1>  -0.1100 
 20 C        9.2330     2.0360    -0.2080 C.3   1 <1>   0.1920 
 21 O        8.4690     0.8760    -0.0760 O.3   1 <1>  -0.5650 
 22 C       10.6620     1.5660     0.0220 C.3   1 <1>  -0.1680 
 23 C        9.1670    -0.2080    -0.6130 C.3   1 <1>   0.1120 
 24 C       10.6480     0.1420    -0.5070 C.3   1 <1>  -0.1680 
 25 H        0.0710     2.6860     0.6460 H     1 <1>   0.0720 
 26 H       -0.0700     0.9580     0.7380 H     1 <1>   0.0720 
 27 H        3.8820    -1.8340     0.2450 H     1 <1>   0.0720 
 28 H        4.6210    -1.3150     1.7440 H     1 <1>   0.0720 
 29 H        5.4570    -1.0890     0.2160 H     1 <1>   0.0720 
 30 H        0.4730     2.5350    -1.8030 H     1 <1>   0.0720 
 31 H       -1.0410     1.7910    -1.3610 H     1 <1>   0.0720 
 32 H        0.3380     0.7830    -1.7070 H     1 <1>   0.0720 
 33 H        6.7290     0.8320     0.5730 H     1 <1>   0.4440 
 34 H        4.8650     5.6830     0.2510 H     1 <1>   0.1420 
 35 H        8.8790     2.7400     1.7910 H     1 <1>   0.0720 
 36 H        9.4450     3.9590     0.6960 H     1 <1>   0.0720 
 37 H        8.4200     6.1430     1.3110 H     1 <1>   0.0720 
 38 H        7.2940     6.9920     0.2820 H     1 <1>   0.0720 
 39 H        8.5330     5.9910    -0.4310 H     1 <1>   0.0720 
 40 H        9.1280     2.3870    -1.2220 H     1 <1>   0.0720 
 41 H       10.8910     1.5620     1.0740 H     1 <1>   0.0720 
 42 H       11.3760     2.1860    -0.4920 H     1 <1>   0.0720 
 43 H        8.8710    -0.3260    -1.6420 H     1 <1>   0.0720 
 44 H        8.9210    -1.0940    -0.0520 H     1 <1>   0.0720 
 45 H       11.1600    -0.5310     0.1590 H     1 <1>   0.0720 
 46 H       11.1060     0.0830    -1.4790 H     1 <1>   0.0720 
@<TRIPOS>BOND
  1   1   2  2   
  2   2   3  am  
  3   2   4  am  
  4   3   5  am  
  5   3   6  1   
  6   4   7  1   
  7   4   8  1   
  8   5   9  2   
  9   5  10  1   
 10   6  11  1   
 11   6  25  1   
 12   6  26  1   
 13   7  10  2   
 14   7  12  1   
 15   8  27  1   
 16   8  28  1   
 17   8  29  1   
 18  10  13  1   
 19  11  30  1   
 20  11  31  1   
 21  11  32  1   
 22  12  14  ar  
 23  12  33  1   
 24  13  14  ar  
 25  13  15  1   
 26  14  16  ar  
 27  15  17  2   
 28  15  34  1   
 29  16  17  1   
 30  16  18  1   
 31  17  19  1   
 32  18  20  1   
 33  18  35  1   
 34  18  36  1   
 35  19  37  1   
 36  19  38  1   
 37  19  39  1   
 38  20  21  1   
 39  20  22  1   
 40  20  40  1   
 41  21  23  1   
 42  22  24  1   
 43  22  41  1   
 44  22  42  1   
 45  23  24  1   
 46  23  43  1   
 47  23  44  1   
 48  24  45  1   
 49  24  46  1   
@<TRIPOS>SUBSTRUCTURE
  1 ****  12 GROUP 4 **** **** 0

# MOE 2024.06 (io_trps.svl 2023.06)
