@<TRIPOS>MOLECULE
2-(3-Phenyl-pyrrolidin-1-yl)-ethylamine
34 35 1 0 0 
SMALL
USER_CHARGES


@<TRIPOS>ATOM
  1 N        0.1090     0.7720     0.0260 N.4   1 <1>  -0.9590 
  2 C        0.3380     1.4050     1.3570 C.3   1 <1>   0.3430 
  3 C       -1.2680     1.2390    -0.3290 C.3   1 <1>   0.3430 
  4 C        0.3110    -0.7190    -0.0480 C.3   1 <1>   0.3430 
  5 C       -0.0780     2.8400     1.0890 C.3   1 <1>   0.0630 
  6 C       -1.3770     2.6360     0.2950 C.3   1 <1>  -0.1600 
  7 C        1.7020    -1.1530    -0.6090 C.3   1 <1>   0.3430 
  8 C        1.0900     3.4600     0.3120 C.ar  1 <1>  -0.1440 
  9 N        2.9050    -0.4610    -0.0160 N.4   1 <1>  -0.8530 
 10 C        1.1150     3.6100    -1.0720 C.ar  1 <1>  -0.1500 
 11 C        2.2050     3.8540     1.0420 C.ar  1 <1>  -0.1500 
 12 C        2.2360     4.1150    -1.7060 C.ar  1 <1>  -0.1500 
 13 C        3.3260     4.3580     0.4080 C.ar  1 <1>  -0.1500 
 14 C        3.3450     4.4840    -0.9680 C.ar  1 <1>  -0.1500 
 15 H        0.7130     1.2840    -0.6370 H     1 <1>   0.4500 
 16 H        1.3660     1.3510     1.6710 H     1 <1>   0.0800 
 17 H       -0.3030     0.9660     2.1060 H     1 <1>   0.0800 
 18 H       -2.0140     0.5900     0.1040 H     1 <1>   0.0800 
 19 H       -1.4080     1.2780    -1.3990 H     1 <1>   0.0800 
 20 H       -0.4460    -1.1450    -0.6890 H     1 <1>   0.0800 
 21 H        0.1660    -1.1520     0.9300 H     1 <1>   0.0800 
 22 H       -0.2540     3.3850     2.0020 H     1 <1>   0.0800 
 23 H       -2.2200     2.6450     0.9650 H     1 <1>   0.0800 
 24 H       -1.5460     3.4060    -0.4370 H     1 <1>   0.0800 
 25 H        1.6950    -0.9850    -1.6750 H     1 <1>   0.0800 
 26 H        1.8020    -2.2190    -0.4680 H     1 <1>   0.0800 
 27 H        2.9110     0.5590    -0.1520 H     1 <1>   0.4500 
 28 H        3.7650    -0.8060    -0.4710 H     1 <1>   0.4500 
 29 H        3.0280    -0.6610     0.9860 H     1 <1>   0.4500 
 30 H        0.2740     3.3580    -1.6940 H     1 <1>   0.1500 
 31 H        2.2150     3.7850     2.1170 H     1 <1>   0.1500 
 32 H        2.2480     4.2390    -2.7770 H     1 <1>   0.1500 
 33 H        4.1820     4.6690     0.9840 H     1 <1>   0.1500 
 34 H        4.2140     4.8870    -1.4620 H     1 <1>   0.1500 
@<TRIPOS>BOND
  1   1   2  1   
  2   1   3  1   
  3   1   4  1   
  4   1  15  1   
  5   2   5  1   
  6   2  16  1   
  7   2  17  1   
  8   3   6  1   
  9   3  18  1   
 10   3  19  1   
 11   4   7  1   
 12   4  20  1   
 13   4  21  1   
 14   5   6  1   
 15   5   8  1   
 16   5  22  1   
 17   6  23  1   
 18   6  24  1   
 19   7   9  1   
 20   7  25  1   
 21   7  26  1   
 22   8  10  ar  
 23   8  11  ar  
 24   9  27  1   
 25   9  28  1   
 26   9  29  1   
 27  10  12  ar  
 28  10  30  1   
 29  11  13  ar  
 30  11  31  1   
 31  12  14  ar  
 32  12  32  1   
 33  13  14  ar  
 34  13  33  1   
 35  14  34  1   
@<TRIPOS>SUBSTRUCTURE
  1 ****   8 GROUP 4 **** **** 0

# MOE 2024.06 (io_trps.svl 2023.06)
