@<TRIPOS>MOLECULE
8-(5-Chloro-2-methoxy-phenyl)-3-(2-ethoxy-ethyl)-1,7-dimethyl-1H,8H-imidazo[2,1-
53 56 1 0 0 
SMALL
USER_CHARGES


@<TRIPOS>ATOM
  1 CL      -1.2660     0.1100     3.1180 Cl    1 <1>  -0.1840 
  2 C       -2.3640    -0.3950     1.8610 C.ar  1 <1>   0.1700 
  3 C       -3.4550     0.3950     1.5650 C.ar  1 <1>  -0.1570 
  4 C       -2.1250    -1.5750     1.1850 C.ar  1 <1>  -0.1570 
  5 C       -4.3340     0.0110     0.5640 C.ar  1 <1>   0.3050 
  6 C       -3.0010    -1.9780     0.1920 C.ar  1 <1>  -0.1570 
  7 N       -5.4450     0.8370     0.2600 N.pl3 1 <1>  -0.5550 
  8 C       -4.1100    -1.1930    -0.1210 C.ar  1 <1>   0.0750 
  9 C       -6.7260     0.4420     0.2140 C.cat 1 <1>   1.0690 
 10 C       -5.4660     2.1660    -0.1590 C.2   1 <1>   0.1580 
 11 O       -5.0080    -1.5630    -1.0800 O.3   1 <1>  -0.3680 
 12 N       -7.4030    -0.6930     0.4240 N.pl3 1 <1>  -0.7030 
 13 N       -7.5380     1.4230    -0.1550 N.pl3 1 <1>  -0.6330 
 14 C       -6.7450     2.5250    -0.4070 C.2   1 <1>   0.2230 
 15 C       -4.2040     2.9970    -0.3090 C.3   1 <1>  -0.1090 
 16 C       -4.6780    -2.5400    -2.0490 C.3   1 <1>   0.0320 
 17 C       -8.7130    -0.4180     0.1580 C.2   1 <1>   0.4210 
 18 C       -8.8310     0.8830    -0.2030 C.2   1 <1>   0.2710 
 19 N       -9.7890    -1.2810     0.2160 N.am  1 <1>  -0.4410 
 20 C      -10.1120     1.4040    -0.5480 C.2   1 <1>   0.7000 
 21 C      -11.0420    -0.7940    -0.1390 C.2   1 <1>   0.6870 
 22 C       -9.6170    -2.7040     0.6350 C.3   1 <1>   0.0530 
 23 O      -10.2520     2.5790    -0.8400 O.2   1 <1>  -0.5740 
 24 N      -11.1910     0.5320    -0.5320 N.am  1 <1>  -0.4250 
 25 O      -12.0060    -1.5300    -0.0970 O.2   1 <1>  -0.5740 
 26 C      -12.5420     1.0210    -0.9560 C.3   1 <1>   0.1330 
 27 C      -13.3620     1.4620     0.2550 C.3   1 <1>   0.1130 
 28 O      -14.5730     1.9580    -0.2070 O.3   1 <1>  -0.5640 
 29 C      -15.4360     2.3660     0.8000 C.3   1 <1>   0.1130 
 30 C      -16.7070     2.8800     0.1360 C.3   1 <1>  -0.2460 
 31 H       -3.6100     1.3010     2.1210 H     1 <1>   0.1430 
 32 H       -1.2640    -2.1700     1.4380 H     1 <1>   0.1430 
 33 H       -2.7990    -2.9040    -0.3160 H     1 <1>   0.1430 
 34 H       -6.9500    -1.5890     0.5930 H     1 <1>   0.4450 
 35 H       -7.1520     3.4650    -0.7490 H     1 <1>   0.1430 
 36 H       -3.5030     2.4940    -0.9530 H     1 <1>   0.0730 
 37 H       -3.7430     3.1620     0.6470 H     1 <1>   0.0730 
 38 H       -4.4360     3.9540    -0.7420 H     1 <1>   0.0730 
 39 H       -5.4620    -2.5660    -2.7850 H     1 <1>   0.0730 
 40 H       -4.5980    -3.5010    -1.5710 H     1 <1>   0.0730 
 41 H       -3.7490    -2.2690    -2.5200 H     1 <1>   0.0730 
 42 H       -8.8410    -2.7910     1.3740 H     1 <1>   0.0730 
 43 H       -9.3670    -3.3060    -0.2220 H     1 <1>   0.0730 
 44 H      -10.5290    -3.0830     1.0650 H     1 <1>   0.0730 
 45 H      -13.0680     0.2350    -1.4710 H     1 <1>   0.0730 
 46 H      -12.4400     1.8500    -1.6350 H     1 <1>   0.0730 
 47 H      -12.8560     2.2470     0.7900 H     1 <1>   0.0730 
 48 H      -13.5590     0.6240     0.9020 H     1 <1>   0.0730 
 49 H      -14.9630     3.1480     1.3700 H     1 <1>   0.0730 
 50 H      -15.6540     1.5240     1.4350 H     1 <1>   0.0730 
 51 H      -16.4770     3.7110    -0.5060 H     1 <1>   0.0730 
 52 H      -17.4030     3.2070     0.8870 H     1 <1>   0.0730 
 53 H      -17.1650     2.0960    -0.4390 H     1 <1>   0.0730 
@<TRIPOS>BOND
  1   1   2  1   
  2   2   3  ar  
  3   2   4  ar  
  4   3   5  ar  
  5   3  31  1   
  6   4   6  ar  
  7   4  32  1   
  8   5   7  1   
  9   5   8  ar  
 10   6   8  ar  
 11   6  33  1   
 12   7   9  ar  
 13   7  10  1   
 14   8  11  1   
 15   9  12  ar  
 16   9  13  ar  
 17  10  14  2   
 18  10  15  1   
 19  11  16  1   
 20  12  17  1   
 21  12  34  1   
 22  13  14  1   
 23  13  18  1   
 24  14  35  1   
 25  15  36  1   
 26  15  37  1   
 27  15  38  1   
 28  16  39  1   
 29  16  40  1   
 30  16  41  1   
 31  17  18  2   
 32  17  19  1   
 33  18  20  1   
 34  19  21  am  
 35  19  22  1   
 36  20  23  2   
 37  20  24  am  
 38  21  24  am  
 39  21  25  2   
 40  22  42  1   
 41  22  43  1   
 42  22  44  1   
 43  24  26  1   
 44  26  27  1   
 45  26  45  1   
 46  26  46  1   
 47  27  28  1   
 48  27  47  1   
 49  27  48  1   
 50  28  29  1   
 51  29  30  1   
 52  29  49  1   
 53  29  50  1   
 54  30  51  1   
 55  30  52  1   
 56  30  53  1   
@<TRIPOS>SUBSTRUCTURE
  1 ****  17 GROUP 4 **** **** 0

# MOE 2024.06 (io_trps.svl 2023.06)
