@<TRIPOS>MOLECULE
1-(4-Chloro-3-ethoxy-benzenesulfonyl)-2-ethyl-1H-imidazole
35 36 1 0 0 
SMALL
USER_CHARGES


@<TRIPOS>ATOM
  1 CL      -0.8140     0.0400     0.6480 Cl    1 <1>  -0.1770 
  2 C       -2.3330     0.0710    -0.2180 C.ar  1 <1>   0.1770 
  3 C       -3.1610    -1.0460    -0.2350 C.ar  1 <1>   0.0830 
  4 C       -2.6850     1.2290    -0.8820 C.ar  1 <1>  -0.1500 
  5 O       -2.7570    -2.1560     0.4360 O.3   1 <1>  -0.3630 
  6 C       -4.3620    -0.9750    -0.9370 C.ar  1 <1>  -0.1500 
  7 C       -3.8850     1.2810    -1.5720 C.ar  1 <1>  -0.1500 
  8 C       -3.5240    -3.3360     0.4730 C.3   1 <1>   0.1200 
  9 C       -4.7440     0.1850    -1.6050 C.ar  1 <1>  -0.0090 
 10 C       -2.7680    -4.3610     1.3120 C.3   1 <1>  -0.2400 
 11 S       -6.3250     0.2640    -2.4900 S.o2  1 <1>   1.2950 
 12 O       -6.3810    -0.8570    -3.4070 O.2   1 <1>  -0.6500 
 13 O       -6.5060     1.6080    -3.0000 O.2   1 <1>  -0.6500 
 14 N       -7.4670    -0.0250    -1.1710 N.pl3 1 <1>   0.3170 
 15 C       -7.7820     0.7910    -0.1240 C.2   1 <1>   0.0060 
 16 C       -8.1020    -1.1870    -0.8750 C.2   1 <1>  -0.3020 
 17 N       -8.5360     0.2290     0.7670 N.2   1 <1>  -0.5650 
 18 C       -7.2870     2.2350    -0.0260 C.3   1 <1>   0.0200 
 19 C       -8.7440    -1.0110     0.2960 C.2   1 <1>   0.0770 
 20 C       -7.7430     2.9530     1.2500 C.3   1 <1>  -0.2400 
 21 H       -2.0240     2.0770    -0.8570 H     1 <1>   0.1500 
 22 H       -5.0160    -1.8260    -0.9760 H     1 <1>   0.1500 
 23 H       -4.1510     2.1870    -2.0920 H     1 <1>   0.1500 
 24 H       -3.6530    -3.6930    -0.5350 H     1 <1>   0.0800 
 25 H       -4.4780    -3.1120     0.9200 H     1 <1>   0.0800 
 26 H       -1.8090    -4.5650     0.8690 H     1 <1>   0.0800 
 27 H       -3.3260    -5.2780     1.3610 H     1 <1>   0.0800 
 28 H       -2.6280    -3.9890     2.3110 H     1 <1>   0.0800 
 29 H       -8.0580    -2.0520    -1.5130 H     1 <1>   0.1500 
 30 H       -7.6510     2.7880    -0.8750 H     1 <1>   0.0800 
 31 H       -6.2130     2.2490    -0.0540 H     1 <1>   0.0800 
 32 H       -9.3540    -1.7180     0.8370 H     1 <1>   0.1500 
 33 H       -8.8180     2.9810     1.2950 H     1 <1>   0.0800 
 34 H       -7.3700     3.9610     1.2660 H     1 <1>   0.0800 
 35 H       -7.3780     2.4330     2.1190 H     1 <1>   0.0800 
@<TRIPOS>BOND
  1   1   2  1   
  2   2   3  ar  
  3   2   4  ar  
  4   3   5  1   
  5   3   6  ar  
  6   4   7  ar  
  7   4  21  1   
  8   5   8  1   
  9   6   9  ar  
 10   6  22  1   
 11   7   9  ar  
 12   7  23  1   
 13   8  10  1   
 14   8  24  1   
 15   8  25  1   
 16   9  11  1   
 17  10  26  1   
 18  10  27  1   
 19  10  28  1   
 20  11  12  2   
 21  11  13  2   
 22  11  14  1   
 23  14  15  1   
 24  14  16  1   
 25  15  17  2   
 26  15  18  1   
 27  16  19  2   
 28  16  29  1   
 29  17  19  1   
 30  18  20  1   
 31  18  30  1   
 32  18  31  1   
 33  19  32  1   
 34  20  33  1   
 35  20  34  1   
 36  20  35  1   
@<TRIPOS>SUBSTRUCTURE
  1 ****   9 GROUP 4 **** **** 0

# MOE 2024.06 (io_trps.svl 2023.06)
