@<TRIPOS>MOLECULE
2-Azepan-1-yl-propylamine
33 33 1 0 0 
SMALL
USER_CHARGES


@<TRIPOS>ATOM
  1 N        0.1310     0.2620     0.2500 N.4   1 <1>  -0.9590 
  2 C        0.7590    -1.0560     0.6030 C.3   1 <1>   0.4230 
  3 C       -0.6650     0.3050    -1.0130 C.3   1 <1>   0.3430 
  4 C        1.0750     1.4190     0.2960 C.3   1 <1>   0.3430 
  5 C        1.7290    -1.6250    -0.4900 C.3   1 <1>   0.3430 
  6 C       -0.3720    -2.0330     0.9350 C.3   1 <1>  -0.2400 
  7 C       -2.0460     0.8970    -0.7330 C.3   1 <1>  -0.1600 
  8 C        0.3580     2.6800     0.7840 C.3   1 <1>  -0.1600 
  9 N        2.3510    -2.9630    -0.1720 N.4   1 <1>  -0.8530 
 10 C       -2.0820     2.1320     0.1860 C.3   1 <1>  -0.1600 
 11 C       -0.9000     3.0970    -0.0010 C.3   1 <1>  -0.1600 
 12 H       -0.5610     0.4710     0.9870 H     1 <1>   0.4500 
 13 H        1.3340    -0.9060     1.5040 H     1 <1>   0.0800 
 14 H       -0.7880    -0.6800    -1.4310 H     1 <1>   0.0800 
 15 H       -0.1620     0.9200    -1.7440 H     1 <1>   0.0800 
 16 H        1.4940     1.5990    -0.6810 H     1 <1>   0.0800 
 17 H        1.8860     1.2120     0.9770 H     1 <1>   0.0800 
 18 H        2.5180    -0.9070    -0.6480 H     1 <1>   0.0800 
 19 H        1.1790    -1.7160    -1.4120 H     1 <1>   0.0800 
 20 H       -0.9380    -2.3040     0.0610 H     1 <1>   0.0800 
 21 H       -1.0400    -1.6020     1.6610 H     1 <1>   0.0800 
 22 H        0.0230    -2.9340     1.3710 H     1 <1>   0.0800 
 23 H       -2.6870     0.1360    -0.3230 H     1 <1>   0.0800 
 24 H       -2.4730     1.1710    -1.6830 H     1 <1>   0.0800 
 25 H        1.0630     3.4920     0.7280 H     1 <1>   0.0800 
 26 H        0.1110     2.5700     1.8270 H     1 <1>   0.0800 
 27 H        2.9370    -2.9500     0.6750 H     1 <1>   0.4500 
 28 H        2.9680    -3.2710    -0.9390 H     1 <1>   0.4500 
 29 H        1.6520    -3.7100    -0.0560 H     1 <1>   0.4500 
 30 H       -2.1440     1.8310     1.2180 H     1 <1>   0.0800 
 31 H       -2.9940     2.6690    -0.0230 H     1 <1>   0.0800 
 32 H       -0.6780     3.2310    -1.0470 H     1 <1>   0.0800 
 33 H       -1.2070     4.0610     0.3730 H     1 <1>   0.0800 
@<TRIPOS>BOND
  1   1   2  1   
  2   1   3  1   
  3   1   4  1   
  4   1  12  1   
  5   2   5  1   
  6   2   6  1   
  7   2  13  1   
  8   3   7  1   
  9   3  14  1   
 10   3  15  1   
 11   4   8  1   
 12   4  16  1   
 13   4  17  1   
 14   5   9  1   
 15   5  18  1   
 16   5  19  1   
 17   6  20  1   
 18   6  21  1   
 19   6  22  1   
 20   7  10  1   
 21   7  23  1   
 22   7  24  1   
 23   8  11  1   
 24   8  25  1   
 25   8  26  1   
 26   9  27  1   
 27   9  28  1   
 28   9  29  1   
 29  10  11  1   
 30  10  30  1   
 31  10  31  1   
 32  11  32  1   
 33  11  33  1   
@<TRIPOS>SUBSTRUCTURE
  1 ****   1 GROUP 4 **** **** 0

# MOE 2024.06 (io_trps.svl 2023.06)
