@<TRIPOS>MOLECULE
5-Oxo-1-(toluene-4-sulfonyl)-pyrrolidine-2-carboxylic acid allylamide
40 41 1 0 0 
SMALL
USER_CHARGES


@<TRIPOS>ATOM
  1 S        0.4960     0.3350    -1.3270 S.o2  1 <1>   1.4470 
  2 O        1.6850     0.0780    -2.1120 O.2   1 <1>  -0.6500 
  3 O       -0.5190     1.2040    -1.8720 O.2   1 <1>  -0.6500 
  4 N        1.0770     1.1310     0.0790 N.am  1 <1>  -0.7300 
  5 C       -0.1810    -1.2290    -0.7100 C.ar  1 <1>  -0.0090 
  6 C        0.2740     1.4780     1.0850 C.2   1 <1>   0.7450 
  7 C        2.3150     1.9330     0.0260 C.3   1 <1>   0.3370 
  8 C        0.6610    -2.2650    -0.3240 C.ar  1 <1>  -0.1500 
  9 C       -1.5510    -1.4310    -0.5910 C.ar  1 <1>  -0.1500 
 10 O       -0.8170     1.0240     1.3090 O.2   1 <1>  -0.5700 
 11 C        0.8980     2.5600     1.9200 C.3   1 <1>  -0.0990 
 12 C        3.5590     1.0810     0.3780 C.2   1 <1>   0.5690 
 13 C        2.0200     3.0840     1.0130 C.3   1 <1>  -0.1600 
 14 C        0.1570    -3.4620     0.1530 C.ar  1 <1>  -0.1500 
 15 C       -2.0620    -2.6250    -0.1140 C.ar  1 <1>  -0.1500 
 16 O        4.1400     1.2500     1.4260 O.2   1 <1>  -0.5700 
 17 N        3.9730     0.1340    -0.5030 N.am  1 <1>  -0.7300 
 18 C       -1.2100    -3.6490     0.2610 C.ar  1 <1>  -0.1430 
 19 C        5.0410    -0.8430    -0.2620 C.3   1 <1>   0.2780 
 20 C       -1.7690    -4.9600     0.7840 C.3   1 <1>  -0.0970 
 21 C        4.5940    -2.1600    -0.8610 C.2   1 <1>  -0.2880 
 22 C        4.3660    -3.2830    -0.1730 C.2   1 <1>  -0.3000 
 23 H        2.4500     2.3380    -0.9630 H     1 <1>   0.0800 
 24 H        1.7280    -2.1360    -0.3980 H     1 <1>   0.1500 
 25 H       -2.2270    -0.6390    -0.8690 H     1 <1>   0.1500 
 26 H        1.2970     2.1210     2.8160 H     1 <1>   0.0800 
 27 H        0.1820     3.3230     2.1650 H     1 <1>   0.0800 
 28 H        1.6590     3.9270     0.4510 H     1 <1>   0.0800 
 29 H        2.8860     3.4000     1.5700 H     1 <1>   0.0800 
 30 H        0.8350    -4.2470     0.4410 H     1 <1>   0.1500 
 31 H       -3.1280    -2.7500    -0.0340 H     1 <1>   0.1500 
 32 H        3.4090    -0.0420    -1.3480 H     1 <1>   0.3700 
 33 H        5.2150    -0.9480     0.7960 H     1 <1>   0.0800 
 34 H        5.9510    -0.5090    -0.7310 H     1 <1>   0.0800 
 35 H       -1.0770    -5.4190     1.4660 H     1 <1>   0.0800 
 36 H       -1.9480    -5.6320    -0.0360 H     1 <1>   0.0800 
 37 H       -2.6950    -4.7910     1.3040 H     1 <1>   0.0800 
 38 H        4.4750    -2.1040    -1.9300 H     1 <1>   0.1500 
 39 H        4.0500    -4.2090    -0.6230 H     1 <1>   0.1500 
 40 H        4.4740    -3.3730     0.8950 H     1 <1>   0.1500 
@<TRIPOS>BOND
  1   1   2  2   
  2   1   3  2   
  3   1   4  am  
  4   1   5  1   
  5   4   6  am  
  6   4   7  1   
  7   5   8  ar  
  8   5   9  ar  
  9   6  10  2   
 10   6  11  1   
 11   7  12  1   
 12   7  13  1   
 13   7  23  1   
 14   8  14  ar  
 15   8  24  1   
 16   9  15  ar  
 17   9  25  1   
 18  11  13  1   
 19  11  26  1   
 20  11  27  1   
 21  12  16  2   
 22  12  17  am  
 23  13  28  1   
 24  13  29  1   
 25  14  18  ar  
 26  14  30  1   
 27  15  18  ar  
 28  15  31  1   
 29  17  19  1   
 30  17  32  1   
 31  18  20  1   
 32  19  21  1   
 33  19  33  1   
 34  19  34  1   
 35  20  35  1   
 36  20  36  1   
 37  20  37  1   
 38  21  22  2   
 39  21  38  1   
 40  22  39  1   
 41  22  40  1   
@<TRIPOS>SUBSTRUCTURE
  1 ****   4 GROUP 4 **** **** 0

# MOE 2024.06 (io_trps.svl 2023.06)
