@<TRIPOS>MOLECULE
N-{1-[3-(4-Methoxy-phenyl)-[1,2,4]oxadiazol-5-yl]-ethyl}-propionamide
37 38 1 0 0 
SMALL
USER_CHARGES


@<TRIPOS>ATOM
  1 O       -1.7350    -0.2710    -2.1820 O.2   1 <1>  -0.5700 
  2 C       -2.2860    -0.4320    -1.1240 C.2   1 <1>   0.5690 
  3 N       -3.6310    -0.5400    -1.0990 N.am  1 <1>  -0.7300 
  4 C       -1.4740    -0.5100     0.1660 C.3   1 <1>  -0.0990 
  5 C       -4.5320    -0.7670     0.0490 C.3   1 <1>   0.4000 
  6 C        0.0510    -0.4860    -0.0350 C.3   1 <1>  -0.2400 
  7 C       -4.9350    -2.2430     0.1400 C.2   1 <1>   0.2980 
  8 C       -5.7270     0.1730    -0.1170 C.3   1 <1>  -0.2400 
  9 O       -4.0340    -3.0870     0.5700 O.3   1 <1>  -0.0190 
 10 N       -6.0610    -2.7580    -0.1540 N.2   1 <1>  -0.5650 
 11 N       -4.6360    -4.2340     0.5490 N.2   1 <1>  -0.4100 
 12 C       -5.8320    -4.0470     0.1160 C.2   1 <1>   0.4620 
 13 C       -6.8390    -5.0800    -0.0680 C.ar  1 <1>   0.0540 
 14 C       -8.1200    -4.7820    -0.5400 C.ar  1 <1>  -0.1500 
 15 C       -6.5640    -6.4190     0.2190 C.ar  1 <1>  -0.1500 
 16 C       -9.0730    -5.7680    -0.7140 C.ar  1 <1>  -0.1500 
 17 C       -7.5120    -7.4120     0.0480 C.ar  1 <1>  -0.1500 
 18 C       -8.7800    -7.0890    -0.4230 C.ar  1 <1>   0.0820 
 19 O       -9.7680    -7.9950    -0.6200 O.3   1 <1>  -0.3630 
 20 C       -9.5720    -9.3660    -0.3540 C.3   1 <1>   0.0400 
 21 H       -4.0850    -0.5450    -2.0140 H     1 <1>   0.3700 
 22 H       -1.7330    -1.4190     0.6770 H     1 <1>   0.0800 
 23 H       -1.7510     0.3190     0.7900 H     1 <1>   0.0800 
 24 H       -4.0260    -0.5070     0.9620 H     1 <1>   0.0800 
 25 H        0.3570    -1.3170    -0.6480 H     1 <1>   0.0800 
 26 H        0.5560    -0.5500     0.9120 H     1 <1>   0.0800 
 27 H        0.3470     0.4250    -0.5250 H     1 <1>   0.0800 
 28 H       -6.2650    -0.0560    -1.0200 H     1 <1>   0.0800 
 29 H       -5.3960     1.1950    -0.1460 H     1 <1>   0.0800 
 30 H       -6.3990     0.0550     0.7140 H     1 <1>   0.0800 
 31 H       -8.3740    -3.7640    -0.7750 H     1 <1>   0.1500 
 32 H       -5.5880    -6.6880     0.5840 H     1 <1>   0.1500 
 33 H      -10.0540    -5.5200    -1.0780 H     1 <1>   0.1500 
 34 H       -7.2470    -8.4240     0.2840 H     1 <1>   0.1500 
 35 H      -10.4860    -9.8840    -0.5830 H     1 <1>   0.0800 
 36 H       -9.3340    -9.4880     0.6880 H     1 <1>   0.0800 
 37 H       -8.7770    -9.7330    -0.9780 H     1 <1>   0.0800 
@<TRIPOS>BOND
  1   1   2  2   
  2   2   3  am  
  3   2   4  1   
  4   3   5  1   
  5   3  21  1   
  6   4   6  1   
  7   4  22  1   
  8   4  23  1   
  9   5   7  1   
 10   5   8  1   
 11   5  24  1   
 12   6  25  1   
 13   6  26  1   
 14   6  27  1   
 15   7   9  1   
 16   7  10  2   
 17   8  28  1   
 18   8  29  1   
 19   8  30  1   
 20   9  11  1   
 21  10  12  1   
 22  11  12  2   
 23  12  13  1   
 24  13  14  ar  
 25  13  15  ar  
 26  14  16  ar  
 27  14  31  1   
 28  15  17  ar  
 29  15  32  1   
 30  16  18  ar  
 31  16  33  1   
 32  17  18  ar  
 33  17  34  1   
 34  18  19  1   
 35  19  20  1   
 36  20  35  1   
 37  20  36  1   
 38  20  37  1   
@<TRIPOS>SUBSTRUCTURE
  1 ****  12 GROUP 4 **** **** 0

# MOE 2024.06 (io_trps.svl 2023.06)
