@<TRIPOS>MOLECULE
4-(4-Methoxy-phenyl)-6-(tetrahydro-furan-2-ylmethyl)-3,4,6,7-tetrahydro-1H-pyrro
46 49 1 0 0 
SMALL
USER_CHARGES


@<TRIPOS>ATOM
  1 O       -0.0730     0.9040    -0.3550 O.2   1 <1>  -0.5700 
  2 C       -1.2240     1.2490    -0.2220 C.2   1 <1>   0.6900 
  3 N       -2.2030     0.6470    -0.9570 N.am  1 <1>  -0.5390 
  4 N       -1.5470     2.2430     0.6420 N.am  1 <1>  -0.7300 
  5 C       -3.5210     1.0490    -0.8530 C.2   1 <1>  -0.0290 
  6 C       -2.8940     2.8670     0.7510 C.3   1 <1>   0.5020 
  7 C       -3.8830     2.0640    -0.0610 C.2   1 <1>  -0.1240 
  8 C       -4.7480     0.4690    -1.5410 C.3   1 <1>   0.2780 
  9 C       -2.8320     4.3130     0.2630 C.ar  1 <1>  -0.1430 
 10 C       -5.2780     2.2480    -0.0910 C.2   1 <1>   0.6160 
 11 N       -5.8150     1.3350    -0.9560 N.am  1 <1>  -0.6600 
 12 C       -2.0770     4.6790    -0.8460 C.ar  1 <1>  -0.1500 
 13 C       -3.5580     5.2920     0.9290 C.ar  1 <1>  -0.1500 
 14 O       -5.9310     3.0340     0.5680 O.2   1 <1>  -0.5700 
 15 C       -7.2540     1.1840    -1.3040 C.3   1 <1>   0.1400 
 16 C       -2.0390     5.9960    -1.2670 C.ar  1 <1>  -0.1500 
 17 C       -3.5230     6.6100     0.5090 C.ar  1 <1>  -0.1500 
 18 C       -7.9000     0.0370    -0.5150 C.3   1 <1>   0.2000 
 19 C       -2.7580     6.9700    -0.5960 C.ar  1 <1>   0.0830 
 20 O       -9.2170    -0.1310    -0.9410 O.3   1 <1>  -0.5600 
 21 C       -7.9770     0.2680     0.9900 C.3   1 <1>  -0.1600 
 22 O       -2.6690     8.2360    -1.0740 O.3   1 <1>  -0.3630 
 23 C      -10.0830    -0.3850     0.1240 C.3   1 <1>   0.1200 
 24 C       -9.2200    -0.5050     1.3720 C.3   1 <1>  -0.1600 
 25 C       -3.4160     9.2870    -0.5030 C.3   1 <1>   0.0400 
 26 H       -1.8790    -0.1020    -1.5680 H     1 <1>   0.3700 
 27 H       -0.7760     2.7670     1.0490 H     1 <1>   0.3700 
 28 H       -3.1970     2.8460     1.7840 H     1 <1>   0.0800 
 29 H       -4.9010    -0.5620    -1.2740 H     1 <1>   0.0800 
 30 H       -4.6980     0.5920    -2.6090 H     1 <1>   0.0800 
 31 H       -1.5150     3.9410    -1.3920 H     1 <1>   0.1500 
 32 H       -4.1670     5.0300     1.7780 H     1 <1>   0.1500 
 33 H       -7.3450     0.9900    -2.3570 H     1 <1>   0.0800 
 34 H       -7.7690     2.1020    -1.0780 H     1 <1>   0.0800 
 35 H       -1.4530     6.2770    -2.1220 H     1 <1>   0.1500 
 36 H       -4.0990     7.3370     1.0500 H     1 <1>   0.1500 
 37 H       -7.3920    -0.8880    -0.7220 H     1 <1>   0.0800 
 38 H       -8.1120     1.3170     1.1930 H     1 <1>   0.0800 
 39 H       -7.0940    -0.0770     1.4960 H     1 <1>   0.0800 
 40 H      -10.6360    -1.2860    -0.0790 H     1 <1>   0.0800 
 41 H      -10.7560     0.4510     0.2010 H     1 <1>   0.0800 
 42 H       -9.7080    -0.1030     2.2420 H     1 <1>   0.0800 
 43 H       -8.9820    -1.5410     1.5430 H     1 <1>   0.0800 
 44 H       -3.2030    10.1860    -1.0550 H     1 <1>   0.0800 
 45 H       -3.1190     9.4090     0.5230 H     1 <1>   0.0800 
 46 H       -4.4620     9.0520    -0.5780 H     1 <1>   0.0800 
@<TRIPOS>BOND
  1   1   2  2   
  2   2   3  am  
  3   2   4  am  
  4   3   5  1   
  5   3  26  1   
  6   4   6  1   
  7   4  27  1   
  8   5   7  2   
  9   5   8  1   
 10   6   7  1   
 11   6   9  1   
 12   6  28  1   
 13   7  10  1   
 14   8  11  1   
 15   8  29  1   
 16   8  30  1   
 17   9  12  ar  
 18   9  13  ar  
 19  10  11  am  
 20  10  14  2   
 21  11  15  1   
 22  12  16  ar  
 23  12  31  1   
 24  13  17  ar  
 25  13  32  1   
 26  15  18  1   
 27  15  33  1   
 28  15  34  1   
 29  16  19  ar  
 30  16  35  1   
 31  17  19  ar  
 32  17  36  1   
 33  18  20  1   
 34  18  21  1   
 35  18  37  1   
 36  19  22  1   
 37  20  23  1   
 38  21  24  1   
 39  21  38  1   
 40  21  39  1   
 41  22  25  1   
 42  23  24  1   
 43  23  40  1   
 44  23  41  1   
 45  24  42  1   
 46  24  43  1   
 47  25  44  1   
 48  25  45  1   
 49  25  46  1   
@<TRIPOS>SUBSTRUCTURE
  1 ****   7 GROUP 4 **** **** 0

# MOE 2024.06 (io_trps.svl 2023.06)
