@<TRIPOS>MOLECULE
N-[5-(2-Ethoxy-ethyl)-[1,3,4]thiadiazol-2-yl]-C-phenyl-methanesulfonamide
38 39 1 0 0 
SMALL
USER_CHARGES


@<TRIPOS>ATOM
  1 S        0.1310     0.1910     0.0130 S.o2  1 <1>   1.3830 
  2 O        0.6600    -0.3530    -1.2190 O.2   1 <1>  -0.6500 
  3 O       -0.6490     1.4100    -0.0450 O.2   1 <1>  -0.6500 
  4 N        1.4420     0.5030     0.9970 N.2   1 <1>  -0.6380 
  5 C       -0.7500    -1.0830     0.9280 C.3   1 <1>   0.0890 
  6 C        2.1680     1.4740     0.6500 C.2   1 <1>   0.6410 
  7 C       -2.0210    -1.5710     0.2460 C.ar  1 <1>  -0.1440 
  8 S        3.6140     1.8800     1.5550 S.3   1 <1>  -0.2820 
  9 N        2.0950     2.3960    -0.3710 N.pl3 1 <1>  -0.4080 
 10 C       -3.2630    -1.1250     0.6720 C.ar  1 <1>  -0.1500 
 11 C       -1.9440    -2.4620    -0.8140 C.ar  1 <1>  -0.1500 
 12 C        3.9520     3.2260     0.4540 C.2   1 <1>   0.5300 
 13 N        3.0890     3.3610    -0.4680 N.2   1 <1>  -0.4920 
 14 C       -4.4160    -1.5720     0.0510 C.ar  1 <1>  -0.1500 
 15 C       -3.0980    -2.9090    -1.4350 C.ar  1 <1>  -0.1500 
 16 C        5.1990     4.0290     0.7480 C.3   1 <1>  -0.0990 
 17 C       -4.3340    -2.4650    -1.0020 C.ar  1 <1>  -0.1500 
 18 C        5.3850     5.1570    -0.2630 C.3   1 <1>   0.1200 
 19 O        6.5440     5.8410     0.0780 O.3   1 <1>  -0.5600 
 20 C        6.8370     6.9030    -0.7650 C.3   1 <1>   0.1200 
 21 C        8.1240     7.5450    -0.2610 C.3   1 <1>  -0.2400 
 22 H       -0.9990    -0.7050     1.9000 H     1 <1>   0.0800 
 23 H       -0.0980    -1.9230     1.0710 H     1 <1>   0.0800 
 24 H        1.2780     2.4040    -1.0000 H     1 <1>   0.4000 
 25 H       -3.3450    -0.4250     1.4870 H     1 <1>   0.1500 
 26 H       -0.9880    -2.8110    -1.1670 H     1 <1>   0.1500 
 27 H       -5.3780    -1.2230     0.3860 H     1 <1>   0.1500 
 28 H       -3.0320    -3.6010    -2.2570 H     1 <1>   0.1500 
 29 H        6.0500     3.3740     0.7110 H     1 <1>   0.0800 
 30 H        5.1180     4.4450     1.7350 H     1 <1>   0.0800 
 31 H       -5.2310    -2.8130    -1.4850 H     1 <1>   0.1500 
 32 H        4.5530     5.8400    -0.2290 H     1 <1>   0.0800 
 33 H        5.4940     4.7610    -1.2590 H     1 <1>   0.0800 
 34 H        6.0240     7.6090    -0.7340 H     1 <1>   0.0800 
 35 H        6.9660     6.5290    -1.7660 H     1 <1>   0.0800 
 36 H        7.9880     7.9020     0.7440 H     1 <1>   0.0800 
 37 H        8.3870     8.3760    -0.8890 H     1 <1>   0.0800 
 38 H        8.9250     6.8290    -0.2820 H     1 <1>   0.0800 
@<TRIPOS>BOND
  1   1   2  2   
  2   1   3  2   
  3   1   4  1   
  4   1   5  1   
  5   4   6  2   
  6   5   7  1   
  7   5  22  1   
  8   5  23  1   
  9   6   8  1   
 10   6   9  1   
 11   7  10  ar  
 12   7  11  ar  
 13   8  12  1   
 14   9  13  1   
 15   9  24  1   
 16  10  14  ar  
 17  10  25  1   
 18  11  15  ar  
 19  11  26  1   
 20  12  13  2   
 21  12  16  1   
 22  14  17  ar  
 23  14  27  1   
 24  15  17  ar  
 25  15  28  1   
 26  16  18  1   
 27  16  29  1   
 28  16  30  1   
 29  17  31  1   
 30  18  19  1   
 31  18  32  1   
 32  18  33  1   
 33  19  20  1   
 34  20  21  1   
 35  20  34  1   
 36  20  35  1   
 37  21  36  1   
 38  21  37  1   
 39  21  38  1   
@<TRIPOS>SUBSTRUCTURE
  1 ****   6 GROUP 4 **** **** 0

# MOE 2024.06 (io_trps.svl 2023.06)
