@<TRIPOS>MOLECULE
4-Chloro-3-(morpholine-4-sulfonyl)-benzamide
32 33 1 0 0 
SMALL
USER_CHARGES


@<TRIPOS>ATOM
  1 CL      -0.5110     0.3430     0.5130 Cl    1 <1>  -0.1770 
  2 C        1.0230     1.1630     0.3810 C.ar  1 <1>   0.1770 
  3 C        1.2070     2.2260    -0.4900 C.ar  1 <1>  -0.0090 
  4 C        2.0450     0.7110     1.1960 C.ar  1 <1>  -0.1500 
  5 S       -0.1320     2.8270    -1.5440 S.o2  1 <1>   1.4470 
  6 C        2.4600     2.8280    -0.5080 C.ar  1 <1>  -0.1500 
  7 C        3.2800     1.3300     1.1550 C.ar  1 <1>  -0.1500 
  8 O        0.3260     3.9690    -2.3030 O.2   1 <1>  -0.6500 
  9 O       -0.7330     1.7220    -2.2580 O.2   1 <1>  -0.6500 
 10 N       -1.2650     3.4110    -0.4270 N.am  1 <1>  -0.8490 
 11 C        3.5170     2.4060     0.3000 C.ar  1 <1>   0.0860 
 12 C       -0.9040     4.7260     0.1270 C.3   1 <1>   0.1960 
 13 C       -2.6170     3.4750    -1.0000 C.3   1 <1>   0.1960 
 14 C        4.8030     3.0800     0.2490 C.2   1 <1>   0.5440 
 15 C       -1.9580     5.2010     1.1430 C.3   1 <1>   0.1200 
 16 C       -3.6330     3.9970     0.0330 C.3   1 <1>   0.1200 
 17 O        4.8910     4.2460    -0.0620 O.2   1 <1>  -0.5700 
 18 N        5.9630     2.4460     0.5330 N.am  1 <1>  -0.8000 
 19 O       -3.2260     5.2330     0.5510 O.3   1 <1>  -0.5600 
 20 H        1.8660    -0.1170     1.8600 H     1 <1>   0.1500 
 21 H        2.6320     3.6610    -1.1730 H     1 <1>   0.1500 
 22 H        4.0650     0.9800     1.8030 H     1 <1>   0.1500 
 23 H       -0.8310     5.4590    -0.6600 H     1 <1>   0.0800 
 24 H        0.0530     4.6650     0.6160 H     1 <1>   0.0800 
 25 H       -2.9230     2.4920    -1.3170 H     1 <1>   0.0800 
 26 H       -2.6230     4.1210    -1.8630 H     1 <1>   0.0800 
 27 H       -1.7290     6.1960     1.4820 H     1 <1>   0.0800 
 28 H       -1.9890     4.5410     1.9930 H     1 <1>   0.0800 
 29 H       -3.7320     3.2980     0.8460 H     1 <1>   0.0800 
 30 H       -4.5950     4.1330    -0.4260 H     1 <1>   0.0800 
 31 H        6.8340     2.9720     0.4450 H     1 <1>   0.3700 
 32 H        6.0510     1.4400     0.6680 H     1 <1>   0.3700 
@<TRIPOS>BOND
  1   1   2  1   
  2   2   3  ar  
  3   2   4  ar  
  4   3   5  1   
  5   3   6  ar  
  6   4   7  ar  
  7   4  20  1   
  8   5   8  2   
  9   5   9  2   
 10   5  10  am  
 11   6  11  ar  
 12   6  21  1   
 13   7  11  ar  
 14   7  22  1   
 15  10  12  1   
 16  10  13  1   
 17  11  14  1   
 18  12  15  1   
 19  12  23  1   
 20  12  24  1   
 21  13  16  1   
 22  13  25  1   
 23  13  26  1   
 24  14  17  2   
 25  14  18  am  
 26  15  19  1   
 27  15  27  1   
 28  15  28  1   
 29  16  19  1   
 30  16  29  1   
 31  16  30  1   
 32  18  31  1   
 33  18  32  1   
@<TRIPOS>SUBSTRUCTURE
  1 ****   3 GROUP 4 **** **** 0

# MOE 2024.06 (io_trps.svl 2023.06)
