@<TRIPOS>MOLECULE
3-Allyl-1,6-dimethyl-8-o-tolyl-5,6,7,8-tetrahydro-1H-1,3,4b,8,9-pentaaza-fluoren
51 54 1 0 0 
SMALL
USER_CHARGES


@<TRIPOS>ATOM
  1 O        1.0680     0.3340     1.2560 O.2   1 <1>  -0.5740 
  2 C        2.0180     1.0500     1.0140 C.2   1 <1>   0.6860 
  3 N        1.8840     2.4320     1.0570 N.am  1 <1>  -0.4260 
  4 N        3.2470     0.4820     0.7020 N.am  1 <1>  -0.4410 
  5 C        2.9690     3.2720     0.8720 C.2   1 <1>   0.6990 
  6 C        0.5270     3.0290     1.1690 C.3   1 <1>   0.2720 
  7 C        4.3070     1.3290     0.4430 C.2   1 <1>   0.4210 
  8 C        3.4090    -1.0010     0.6200 C.3   1 <1>   0.0520 
  9 O        2.8700     4.4790     1.0170 O.2   1 <1>  -0.5740 
 10 C        4.2190     2.6750     0.5180 C.2   1 <1>   0.2710 
 11 C       -0.0600     3.3160    -0.2080 C.2   1 <1>  -0.2950 
 12 N        5.5800     0.9950     0.0870 N.pl3 1 <1>  -0.7040 
 13 N        5.4920     3.1660     0.1960 N.pl3 1 <1>  -0.7670 
 14 C        0.4250     2.9830    -1.4110 C.2   1 <1>  -0.3060 
 15 C        6.2720     2.1240    -0.0520 C.cat 1 <1>   1.0690 
 16 C        5.9260     4.5770     0.1200 C.3   1 <1>   0.3480 
 17 N        7.5670     2.2350    -0.3900 N.pl3 1 <1>  -0.5800 
 18 C        7.1690     4.6750    -0.7850 C.3   1 <1>  -0.0880 
 19 C        8.3770     1.1210    -0.6300 C.ar  1 <1>   0.3050 
 20 C        8.2030     3.5810    -0.4490 C.3   1 <1>   0.1610 
 21 C        7.8090     6.0680    -0.6880 C.3   1 <1>  -0.2470 
 22 C        8.9120     0.3690     0.4180 C.ar  1 <1>  -0.1510 
 23 C        8.6210     0.7380    -1.9430 C.ar  1 <1>  -0.1570 
 24 C        9.6660    -0.7570     0.1290 C.ar  1 <1>  -0.1570 
 25 C        8.7040     0.7530     1.8810 C.3   1 <1>  -0.1040 
 26 C        9.3760    -0.3850    -2.2210 C.ar  1 <1>  -0.1570 
 27 C        9.8950    -1.1350    -1.1830 C.ar  1 <1>  -0.1570 
 28 H        0.5840     3.9480     1.7290 H     1 <1>   0.0720 
 29 H       -0.1310     2.3700     1.7090 H     1 <1>   0.0720 
 30 H        2.6460    -1.4980     1.1950 H     1 <1>   0.0720 
 31 H        4.3650    -1.2960     1.0120 H     1 <1>   0.0720 
 32 H        3.3260    -1.3180    -0.4050 H     1 <1>   0.0720 
 33 H       -0.9870     3.8570    -0.1200 H     1 <1>   0.1430 
 34 H        5.9750     0.0690    -0.0610 H     1 <1>   0.4450 
 35 H       -0.0700     3.2340    -2.3340 H     1 <1>   0.1430 
 36 H        1.3330     2.4370    -1.5930 H     1 <1>   0.1430 
 37 H        6.1570     4.9280     1.1120 H     1 <1>   0.0720 
 38 H        5.1330     5.1880    -0.2800 H     1 <1>   0.0720 
 39 H        6.8520     4.5370    -1.8050 H     1 <1>   0.0720 
 40 H        8.9800     3.5810    -1.1970 H     1 <1>   0.0720 
 41 H        8.6600     3.7890     0.5040 H     1 <1>   0.0720 
 42 H        8.1520     6.2680     0.3130 H     1 <1>   0.0720 
 43 H        7.0990     6.8290    -0.9640 H     1 <1>   0.0720 
 44 H        8.6500     6.1420    -1.3570 H     1 <1>   0.0720 
 45 H        8.2210     1.3190    -2.7540 H     1 <1>   0.1430 
 46 H       10.0910    -1.3530     0.9210 H     1 <1>   0.1430 
 47 H        7.6840     0.5870     2.1750 H     1 <1>   0.0720 
 48 H        8.9530     1.7870     2.0360 H     1 <1>   0.0720 
 49 H        9.3370     0.1650     2.5230 H     1 <1>   0.0720 
 50 H        9.5650    -0.6790    -3.2410 H     1 <1>   0.1430 
 51 H       10.4850    -2.0110    -1.3950 H     1 <1>   0.1430 
@<TRIPOS>BOND
  1   1   2  2   
  2   2   3  am  
  3   2   4  am  
  4   3   5  am  
  5   3   6  1   
  6   4   7  1   
  7   4   8  1   
  8   5   9  2   
  9   5  10  1   
 10   6  11  1   
 11   6  28  1   
 12   6  29  1   
 13   7  10  2   
 14   7  12  1   
 15   8  30  1   
 16   8  31  1   
 17   8  32  1   
 18  10  13  1   
 19  11  14  2   
 20  11  33  1   
 21  12  15  ar  
 22  12  34  1   
 23  13  15  ar  
 24  13  16  1   
 25  14  35  1   
 26  14  36  1   
 27  15  17  ar  
 28  16  18  1   
 29  16  37  1   
 30  16  38  1   
 31  17  19  1   
 32  17  20  1   
 33  18  20  1   
 34  18  21  1   
 35  18  39  1   
 36  19  22  ar  
 37  19  23  ar  
 38  20  40  1   
 39  20  41  1   
 40  21  42  1   
 41  21  43  1   
 42  21  44  1   
 43  22  24  ar  
 44  22  25  1   
 45  23  26  ar  
 46  23  45  1   
 47  24  27  ar  
 48  24  46  1   
 49  25  47  1   
 50  25  48  1   
 51  25  49  1   
 52  26  27  ar  
 53  26  50  1   
 54  27  51  1   
@<TRIPOS>SUBSTRUCTURE
  1 ****  15 GROUP 4 **** **** 0

# MOE 2024.06 (io_trps.svl 2023.06)
