@<TRIPOS>MOLECULE
1,7,8-Trimethyl-3-(3-phenyl-propyl)-1H,8H-imidazo[2,1-f]purine-2,4-dione
48 51 1 0 0 
SMALL
USER_CHARGES


@<TRIPOS>ATOM
  1 O        0.6490    -0.0190     2.5540 O.2   1 <1>  -0.5750 
  2 C        1.4670     0.6850     1.9990 C.2   1 <1>   0.6860 
  3 N        1.1380     1.9870     1.6300 N.am  1 <1>  -0.4260 
  4 N        2.7360     0.1810     1.7300 N.am  1 <1>  -0.4420 
  5 C        2.0540     2.8040     0.9820 C.2   1 <1>   0.6990 
  6 C       -0.2410     2.4960     1.8890 C.3   1 <1>   0.1320 
  7 C        3.6310     0.9910     1.0600 C.2   1 <1>   0.4200 
  8 C        3.0960    -1.2120     2.1310 C.3   1 <1>   0.0520 
  9 O        1.7730     3.9510     0.6750 O.2   1 <1>  -0.5750 
 10 C        3.3370     2.2600     0.6860 C.2   1 <1>   0.2700 
 11 C       -1.1400     2.2010     0.6850 C.3   1 <1>  -0.1670 
 12 N        4.9050     0.6870     0.6670 N.pl3 1 <1>  -0.7040 
 13 N        4.4820     2.7540     0.0420 N.pl3 1 <1>  -0.6330 
 14 C       -2.5760     2.6760     0.9320 C.3   1 <1>  -0.0250 
 15 C        5.3810     1.7800     0.0580 C.cat 1 <1>   1.0690 
 16 C        5.0600     3.8290    -0.6030 C.2   1 <1>   0.2220 
 17 C       -3.4400     2.3820    -0.2820 C.ar  1 <1>  -0.1510 
 18 N        6.5220     2.1530    -0.5420 N.pl3 1 <1>  -0.5720 
 19 C        6.3110     3.4600    -0.9600 C.2   1 <1>   0.1570 
 20 C       -4.0160     1.1320    -0.4410 C.ar  1 <1>  -0.1580 
 21 C       -3.6560     3.3570    -1.2440 C.ar  1 <1>  -0.1580 
 22 C        7.7660     1.3610    -0.7330 C.3   1 <1>   0.0800 
 23 C        7.3730     4.2580    -1.6920 C.3   1 <1>  -0.1100 
 24 C       -4.8010     0.8580    -1.5480 C.ar  1 <1>  -0.1580 
 25 C       -4.4410     3.0860    -2.3510 C.ar  1 <1>  -0.1580 
 26 C       -5.0140     1.8360    -2.5040 C.ar  1 <1>  -0.1580 
 27 H       -0.2140     3.5570     2.0740 H     1 <1>   0.0720 
 28 H       -0.6470     2.0260     2.7700 H     1 <1>   0.0720 
 29 H        2.8840    -1.8880     1.3210 H     1 <1>   0.0720 
 30 H        2.5220    -1.5160     2.9900 H     1 <1>   0.0720 
 31 H        4.1380    -1.2750     2.3900 H     1 <1>   0.0720 
 32 H       -1.1550     1.1420     0.4970 H     1 <1>   0.0720 
 33 H       -0.7560     2.7020    -0.1860 H     1 <1>   0.0720 
 34 H        5.4110    -0.1870     0.7920 H     1 <1>   0.4450 
 35 H       -2.5850     3.7330     1.1340 H     1 <1>   0.0720 
 36 H       -2.9870     2.1740     1.7910 H     1 <1>   0.0720 
 37 H        4.5390     4.7630    -0.7550 H     1 <1>   0.1420 
 38 H       -3.8540     0.3660     0.2960 H     1 <1>   0.1420 
 39 H       -3.2140     4.3320    -1.1350 H     1 <1>   0.1420 
 40 H        7.6590     0.3770    -0.3100 H     1 <1>   0.0720 
 41 H        8.5920     1.8570    -0.2530 H     1 <1>   0.0720 
 42 H        7.9800     1.2660    -1.7840 H     1 <1>   0.0720 
 43 H        8.2520     4.3570    -1.0800 H     1 <1>   0.0720 
 44 H        7.0090     5.2430    -1.9260 H     1 <1>   0.0720 
 45 H        7.6420     3.7670    -2.6110 H     1 <1>   0.0720 
 46 H       -5.2440    -0.1150    -1.6650 H     1 <1>   0.1420 
 47 H       -4.6050     3.8470    -3.0930 H     1 <1>   0.1420 
 48 H       -5.6230     1.6240    -3.3650 H     1 <1>   0.1420 
@<TRIPOS>BOND
  1   1   2  2   
  2   2   3  am  
  3   2   4  am  
  4   3   5  am  
  5   3   6  1   
  6   4   7  1   
  7   4   8  1   
  8   5   9  2   
  9   5  10  1   
 10   6  11  1   
 11   6  27  1   
 12   6  28  1   
 13   7  10  2   
 14   7  12  1   
 15   8  29  1   
 16   8  30  1   
 17   8  31  1   
 18  10  13  1   
 19  11  14  1   
 20  11  32  1   
 21  11  33  1   
 22  12  15  ar  
 23  12  34  1   
 24  13  15  ar  
 25  13  16  1   
 26  14  17  1   
 27  14  35  1   
 28  14  36  1   
 29  15  18  ar  
 30  16  19  2   
 31  16  37  1   
 32  17  20  ar  
 33  17  21  ar  
 34  18  19  1   
 35  18  22  1   
 36  19  23  1   
 37  20  24  ar  
 38  20  38  1   
 39  21  25  ar  
 40  21  39  1   
 41  22  40  1   
 42  22  41  1   
 43  22  42  1   
 44  23  43  1   
 45  23  44  1   
 46  23  45  1   
 47  24  26  ar  
 48  24  46  1   
 49  25  26  ar  
 50  25  47  1   
 51  26  48  1   
@<TRIPOS>SUBSTRUCTURE
  1 ****   5 GROUP 4 **** **** 0

# MOE 2024.06 (io_trps.svl 2023.06)
