@<TRIPOS>MOLECULE
1-(4-Benzenesulfonyl-piperazine-1-sulfonyl)-azepane
50 52 1 0 0 
SMALL
USER_CHARGES


@<TRIPOS>ATOM
  1 S        0.4660     0.1000    -1.7950 S.o2  1 <1>   1.5760 
  2 O        0.7180     1.3760    -2.4280 O.2   1 <1>  -0.6500 
  3 O        0.3010    -1.0950    -2.5920 O.2   1 <1>  -0.6500 
  4 N       -0.8500     0.2330    -0.7450 N.am  1 <1>  -0.8490 
  5 N        1.7070    -0.1660    -0.6870 N.am  1 <1>  -0.8490 
  6 C       -2.0050     0.8270    -1.4260 C.3   1 <1>   0.1960 
  7 C       -1.1530    -1.0640    -0.1300 C.3   1 <1>   0.1960 
  8 C        2.9460    -0.5530    -1.3730 C.3   1 <1>   0.1960 
  9 C        1.9550     1.0200     0.1510 C.3   1 <1>   0.1960 
 10 C       -2.9150     1.5300    -0.4150 C.3   1 <1>  -0.1600 
 11 C       -2.1780    -0.9760     1.0080 C.3   1 <1>  -0.1600 
 12 C        4.0850    -0.8110    -0.3670 C.3   1 <1>   0.1960 
 13 C        3.0950     0.7720     1.1560 C.3   1 <1>   0.1960 
 14 C       -4.0120     0.6510     0.2090 C.3   1 <1>  -0.1600 
 15 C       -3.6190    -0.8020     0.5080 C.3   1 <1>  -0.1600 
 16 N        4.3410     0.3690     0.4810 N.am  1 <1>  -0.8490 
 17 S        5.5840     0.1040     1.6020 S.o2  1 <1>   1.4470 
 18 O        5.6430     1.2830     2.4380 O.2   1 <1>  -0.6500 
 19 O        5.3230    -1.1840     2.2070 O.2   1 <1>  -0.6500 
 20 C        7.0650     0.0250     0.5560 C.ar  1 <1>  -0.0090 
 21 C        7.8070    -1.1450     0.4420 C.ar  1 <1>  -0.1500 
 22 C        7.4810     1.1330    -0.1730 C.ar  1 <1>  -0.1500 
 23 C        8.9240    -1.2100    -0.3730 C.ar  1 <1>  -0.1500 
 24 C        8.5970     1.0780    -0.9900 C.ar  1 <1>  -0.1500 
 25 C        9.3200    -0.0960    -1.0910 C.ar  1 <1>  -0.1500 
 26 H       -2.5410     0.0880    -1.9980 H     1 <1>   0.0800 
 27 H       -1.6650     1.5830    -2.1130 H     1 <1>   0.0800 
 28 H       -0.2460    -1.4690     0.2880 H     1 <1>   0.0800 
 29 H       -1.4940    -1.7590    -0.8800 H     1 <1>   0.0800 
 30 H        3.2470     0.2230    -2.0580 H     1 <1>   0.0800 
 31 H        2.7750    -1.4520    -1.9400 H     1 <1>   0.0800 
 32 H        1.0610     1.2700     0.6960 H     1 <1>   0.0800 
 33 H        2.2140     1.8650    -0.4650 H     1 <1>   0.0800 
 34 H       -3.4010     2.3500    -0.9130 H     1 <1>   0.0800 
 35 H       -2.3030     1.9580     0.3600 H     1 <1>   0.0800 
 36 H       -1.9050    -0.1980     1.6990 H     1 <1>   0.0800 
 37 H       -2.1310    -1.9070     1.5440 H     1 <1>   0.0800 
 38 H        4.9770    -1.0640    -0.9140 H     1 <1>   0.0800 
 39 H        3.8160    -1.6570     0.2440 H     1 <1>   0.0800 
 40 H        2.7900     0.0090     1.8530 H     1 <1>   0.0800 
 41 H        3.2640     1.6800     1.7110 H     1 <1>   0.0800 
 42 H       -4.8650     0.6370    -0.4470 H     1 <1>   0.0800 
 43 H       -4.3290     1.1210     1.1250 H     1 <1>   0.0800 
 44 H       -4.2950    -1.1800     1.2560 H     1 <1>   0.0800 
 45 H       -3.7640    -1.4020    -0.3740 H     1 <1>   0.0800 
 46 H        7.5090    -2.0180     0.9990 H     1 <1>   0.1500 
 47 H        6.9210     2.0500    -0.0980 H     1 <1>   0.1500 
 48 H        9.4870    -2.1250    -0.4470 H     1 <1>   0.1500 
 49 H        8.9040     1.9480    -1.5450 H     1 <1>   0.1500 
 50 H       10.1880    -0.1430    -1.7250 H     1 <1>   0.1500 
@<TRIPOS>BOND
  1   1   2  2   
  2   1   3  2   
  3   1   4  am  
  4   1   5  am  
  5   4   6  1   
  6   4   7  1   
  7   5   8  1   
  8   5   9  1   
  9   6  10  1   
 10   6  26  1   
 11   6  27  1   
 12   7  11  1   
 13   7  28  1   
 14   7  29  1   
 15   8  12  1   
 16   8  30  1   
 17   8  31  1   
 18   9  13  1   
 19   9  32  1   
 20   9  33  1   
 21  10  14  1   
 22  10  34  1   
 23  10  35  1   
 24  11  15  1   
 25  11  36  1   
 26  11  37  1   
 27  12  16  1   
 28  12  38  1   
 29  12  39  1   
 30  13  16  1   
 31  13  40  1   
 32  13  41  1   
 33  14  15  1   
 34  14  42  1   
 35  14  43  1   
 36  15  44  1   
 37  15  45  1   
 38  16  17  am  
 39  17  18  2   
 40  17  19  2   
 41  17  20  1   
 42  20  21  ar  
 43  20  22  ar  
 44  21  23  ar  
 45  21  46  1   
 46  22  24  ar  
 47  22  47  1   
 48  23  25  ar  
 49  23  48  1   
 50  24  25  ar  
 51  24  49  1   
 52  25  50  1   
@<TRIPOS>SUBSTRUCTURE
  1 ****   5 GROUP 4 **** **** 0

# MOE 2024.06 (io_trps.svl 2023.06)
