@<TRIPOS>MOLECULE
8-(2-Chloro-phenyl)-1,7-dimethyl-3-(2-morpholin-4-yl-ethyl)-1H,8H-imidazo[2,1-f]
55 59 1 0 0 
SMALL
USER_CHARGES


@<TRIPOS>ATOM
  1 CL       0.3560     1.3500     2.2840 Cl    1 <1>  -0.1830 
  2 C        1.3460     1.5730     0.8580 C.ar  1 <1>   0.1710 
  3 C        0.9780     2.5160    -0.1010 C.ar  1 <1>   0.3050 
  4 C        2.4750     0.7890     0.7100 C.ar  1 <1>  -0.1570 
  5 N       -0.1780     3.3170     0.0430 N.pl3 1 <1>  -0.5550 
  6 C        1.7760     2.6500    -1.2290 C.ar  1 <1>  -0.1570 
  7 C        3.2580     0.9400    -0.4210 C.ar  1 <1>  -0.1570 
  8 C       -1.4470     2.8840     0.1010 C.cat 1 <1>   1.0690 
  9 C       -0.2550     4.6890     0.2680 C.2   1 <1>   0.1580 
 10 C        2.9080     1.8670    -1.3880 C.ar  1 <1>  -0.1570 
 11 N       -2.0780     1.7090     0.0110 N.pl3 1 <1>  -0.7030 
 12 N       -2.2990     3.8750     0.3180 N.pl3 1 <1>  -0.6330 
 13 C       -1.5520     5.0310     0.4340 C.2   1 <1>   0.2230 
 14 C        0.9810     5.5690     0.3180 C.3   1 <1>  -0.1090 
 15 C       -3.4060     1.9710     0.1940 C.2   1 <1>   0.4210 
 16 C       -3.5770     3.3020     0.3880 C.2   1 <1>   0.2710 
 17 N       -4.4530     1.0720     0.1960 N.am  1 <1>  -0.4410 
 18 C       -4.8860     3.8190     0.6110 C.2   1 <1>   0.7000 
 19 C       -5.7360     1.5570     0.4310 C.2   1 <1>   0.6870 
 20 C       -4.2210    -0.3880    -0.0200 C.3   1 <1>   0.0530 
 21 O       -5.0730     5.0150     0.7580 O.2   1 <1>  -0.5740 
 22 N       -5.9390     2.9160     0.6500 N.am  1 <1>  -0.4250 
 23 O       -6.6750     0.7900     0.4390 O.2   1 <1>  -0.5740 
 24 C       -7.3230     3.4180     0.9220 C.3   1 <1>   0.1330 
 25 C       -8.0400     3.7480    -0.3910 C.3   1 <1>   0.1030 
 26 N       -9.3530     4.3490    -0.1270 N.3   1 <1>  -0.8130 
 27 C       -9.2520     5.7850     0.2160 C.3   1 <1>   0.1030 
 28 C      -10.2440     4.1960    -1.2930 C.3   1 <1>   0.1030 
 29 C      -10.6460     6.4080     0.4180 C.3   1 <1>   0.1130 
 30 C      -11.6080     4.8660    -1.0450 C.3   1 <1>   0.1130 
 31 O      -11.4420     6.2150    -0.7160 O.3   1 <1>  -0.5640 
 32 H        2.7420     0.0710     1.4670 H     1 <1>   0.1430 
 33 H        1.5180     3.3650    -1.9900 H     1 <1>   0.1430 
 34 H        4.1420     0.3350    -0.5490 H     1 <1>   0.1430 
 35 H        3.5240     1.9780    -2.2670 H     1 <1>   0.1430 
 36 H       -1.6250     0.8050    -0.1060 H     1 <1>   0.4450 
 37 H       -1.9990     5.9950     0.6290 H     1 <1>   0.1430 
 38 H        1.6560     5.2180     1.0780 H     1 <1>   0.0730 
 39 H        0.7100     6.5840     0.5460 H     1 <1>   0.0730 
 40 H        1.4880     5.5570    -0.6300 H     1 <1>   0.0730 
 41 H       -3.4270    -0.5450    -0.7270 H     1 <1>   0.0730 
 42 H       -5.1090    -0.8590    -0.4090 H     1 <1>   0.0730 
 43 H       -3.9690    -0.8570     0.9160 H     1 <1>   0.0730 
 44 H       -7.2730     4.2920     1.5450 H     1 <1>   0.0730 
 45 H       -7.8890     2.6710     1.4520 H     1 <1>   0.0730 
 46 H       -8.1750     2.8290    -0.9360 H     1 <1>   0.0730 
 47 H       -7.4480     4.4220    -0.9880 H     1 <1>   0.0730 
 48 H       -8.7460     6.3180    -0.5690 H     1 <1>   0.0730 
 49 H       -8.6880     5.9060     1.1230 H     1 <1>   0.0730 
 50 H      -10.4000     3.1490    -1.4870 H     1 <1>   0.0730 
 51 H       -9.7920     4.6380    -2.1650 H     1 <1>   0.0730 
 52 H      -10.5600     7.4670     0.5820 H     1 <1>   0.0730 
 53 H      -11.1380     5.9620     1.2640 H     1 <1>   0.0730 
 54 H      -12.1260     4.3760    -0.2390 H     1 <1>   0.0730 
 55 H      -12.2150     4.8160    -1.9310 H     1 <1>   0.0730 
@<TRIPOS>BOND
  1   1   2  1   
  2   2   3  ar  
  3   2   4  ar  
  4   3   5  1   
  5   3   6  ar  
  6   4   7  ar  
  7   4  32  1   
  8   5   8  ar  
  9   5   9  1   
 10   6  10  ar  
 11   6  33  1   
 12   7  10  ar  
 13   7  34  1   
 14   8  11  ar  
 15   8  12  ar  
 16   9  13  2   
 17   9  14  1   
 18  10  35  1   
 19  11  15  1   
 20  11  36  1   
 21  12  13  1   
 22  12  16  1   
 23  13  37  1   
 24  14  38  1   
 25  14  39  1   
 26  14  40  1   
 27  15  16  2   
 28  15  17  1   
 29  16  18  1   
 30  17  19  am  
 31  17  20  1   
 32  18  21  2   
 33  18  22  am  
 34  19  22  am  
 35  19  23  2   
 36  20  41  1   
 37  20  42  1   
 38  20  43  1   
 39  22  24  1   
 40  24  25  1   
 41  24  44  1   
 42  24  45  1   
 43  25  26  1   
 44  25  46  1   
 45  25  47  1   
 46  26  27  1   
 47  26  28  1   
 48  27  29  1   
 49  27  48  1   
 50  27  49  1   
 51  28  30  1   
 52  28  50  1   
 53  28  51  1   
 54  29  31  1   
 55  29  52  1   
 56  29  53  1   
 57  30  31  1   
 58  30  54  1   
 59  30  55  1   
@<TRIPOS>SUBSTRUCTURE
  1 ****  16 GROUP 4 **** **** 0

# MOE 2024.06 (io_trps.svl 2023.06)
