@<TRIPOS>MOLECULE
3-Chloro-N-(3-imidazol-1-yl-propyl)-4-methoxy-benzenesulfonamide
37 38 1 0 0 
SMALL
USER_CHARGES


@<TRIPOS>ATOM
  1 CL      -0.0610    -0.3380     0.3730 Cl    1 <1>  -0.1770 
  2 C        1.5540    -0.9340     0.0580 C.ar  1 <1>   0.1770 
  3 C        1.8130    -2.2990     0.0570 C.ar  1 <1>   0.0830 
  4 C        2.5520    -0.0100    -0.1850 C.ar  1 <1>  -0.1500 
  5 O        0.7860    -3.1550     0.3050 O.3   1 <1>  -0.3630 
  6 C        3.1140    -2.7210    -0.1980 C.ar  1 <1>  -0.1500 
  7 C        3.8540    -0.4230    -0.4390 C.ar  1 <1>  -0.0090 
  8 C        0.9670    -4.5530     0.3140 C.3   1 <1>   0.0400 
  9 C        4.1120    -1.7910    -0.4420 C.ar  1 <1>  -0.1500 
 10 S        5.1660     0.7890    -0.7540 S.o2  1 <1>   1.4470 
 11 O        6.4570     0.1430    -0.7760 O.2   1 <1>  -0.6500 
 12 O        4.7740     1.6790    -1.8230 O.2   1 <1>  -0.6500 
 13 N        5.2020     1.6930     0.6610 N.am  1 <1>  -0.9140 
 14 C        5.5570     3.0960     0.5080 C.3   1 <1>   0.1960 
 15 C        7.0450     3.2560     0.1860 C.3   1 <1>  -0.1600 
 16 C        7.4060     4.7380     0.0230 C.3   1 <1>   0.0960 
 17 N        8.8520     4.8930    -0.2260 N.pl3 1 <1>   0.0480 
 18 C        9.7980     5.3430     0.6300 C.2   1 <1>   0.0360 
 19 C        9.5230     4.6180    -1.3590 C.2   1 <1>  -0.3020 
 20 N       10.9910     5.3720     0.1300 N.2   1 <1>  -0.5650 
 21 C       10.8190     4.9150    -1.1240 C.2   1 <1>   0.0770 
 22 H        2.3110     1.0390    -0.1770 H     1 <1>   0.1500 
 23 H        3.3690    -3.7650    -0.2120 H     1 <1>   0.1500 
 24 H        0.0180    -5.0100     0.5290 H     1 <1>   0.0800 
 25 H        1.6770    -4.8090     1.0810 H     1 <1>   0.0800 
 26 H        1.3130    -4.8680    -0.6550 H     1 <1>   0.0800 
 27 H        5.1150    -2.1360    -0.6380 H     1 <1>   0.1500 
 28 H        5.9250     1.2390     1.2180 H     1 <1>   0.4200 
 29 H        5.3410     3.6020     1.4350 H     1 <1>   0.0800 
 30 H        4.9490     3.5510    -0.2580 H     1 <1>   0.0800 
 31 H        7.2800     2.7490    -0.7340 H     1 <1>   0.0800 
 32 H        7.6330     2.8340     0.9820 H     1 <1>   0.0800 
 33 H        7.1500     5.2860     0.9120 H     1 <1>   0.0800 
 34 H        6.8710     5.1620    -0.8090 H     1 <1>   0.0800 
 35 H        9.5620     5.6470     1.6340 H     1 <1>   0.1500 
 36 H        9.0570     4.2350    -2.2480 H     1 <1>   0.1500 
 37 H       11.6520     4.8210    -1.8020 H     1 <1>   0.1500 
@<TRIPOS>BOND
  1   1   2  1   
  2   2   3  ar  
  3   2   4  ar  
  4   3   5  1   
  5   3   6  ar  
  6   4   7  ar  
  7   4  22  1   
  8   5   8  1   
  9   6   9  ar  
 10   6  23  1   
 11   7   9  ar  
 12   7  10  1   
 13   8  24  1   
 14   8  25  1   
 15   8  26  1   
 16   9  27  1   
 17  10  11  2   
 18  10  12  2   
 19  10  13  am  
 20  13  14  1   
 21  13  28  1   
 22  14  15  1   
 23  14  29  1   
 24  14  30  1   
 25  15  16  1   
 26  15  31  1   
 27  15  32  1   
 28  16  17  1   
 29  16  33  1   
 30  16  34  1   
 31  17  18  1   
 32  17  19  1   
 33  18  20  2   
 34  18  35  1   
 35  19  21  2   
 36  19  36  1   
 37  20  21  1   
 38  21  37  1   
@<TRIPOS>SUBSTRUCTURE
  1 ****  10 GROUP 4 **** **** 0

# MOE 2024.06 (io_trps.svl 2023.06)
