@<TRIPOS>MOLECULE
1-[4-(4,6-Di-piperidin-1-yl-[1,3,5]triazin-2-yl)-piperazin-1-yl]-ethanone
58 61 1 0 0 
SMALL
USER_CHARGES


@<TRIPOS>ATOM
  1 O       -0.7130    -0.7400     0.6420 O.2   1 <1>  -0.5700 
  2 C       -1.6330    -0.1630     0.1150 C.2   1 <1>   0.5690 
  3 N       -2.9130    -0.6490     0.1450 N.am  1 <1>  -0.6600 
  4 C       -1.3210     1.1360    -0.5910 C.3   1 <1>  -0.1790 
  5 C       -3.2330    -1.9520     0.8170 C.3   1 <1>   0.1400 
  6 C       -4.1230     0.0390    -0.4160 C.3   1 <1>   0.1400 
  7 C       -4.3390    -1.7800     1.8710 C.3   1 <1>   0.2090 
  8 C       -5.2270     0.1910     0.6460 C.3   1 <1>   0.2090 
  9 N       -5.5440    -1.1330     1.2630 N.pl3 1 <1>  -0.8380 
 10 C       -6.6350    -1.8670     0.8420 C.ar  1 <1>   0.7200 
 11 N       -7.6830    -1.1950     0.4520 N.ar  1 <1>  -0.6200 
 12 N       -6.5270    -3.1690     0.8550 N.ar  1 <1>  -0.6200 
 13 C       -8.6810    -1.9370     0.0500 C.ar  1 <1>   0.7200 
 14 C       -7.5870    -3.8050     0.4320 C.ar  1 <1>   0.7200 
 15 N       -8.6900    -3.2420     0.0150 N.ar  1 <1>  -0.6200 
 16 N       -9.8160    -1.2820    -0.3770 N.pl3 1 <1>  -0.8380 
 17 N       -7.5370    -5.1840     0.4230 N.pl3 1 <1>  -0.8380 
 18 C      -10.2450     0.0160     0.2110 C.3   1 <1>   0.2090 
 19 C      -10.8280    -1.9270    -1.2560 C.3   1 <1>   0.2090 
 20 C       -8.7610    -6.0330     0.4160 C.3   1 <1>   0.2090 
 21 C       -6.2570    -5.9440     0.3900 C.3   1 <1>   0.2090 
 22 C      -11.5390    -0.1890     1.0060 C.3   1 <1>  -0.1600 
 23 C      -12.1190    -2.1550    -0.4640 C.3   1 <1>  -0.1600 
 24 C       -8.7540    -6.9260    -0.8280 C.3   1 <1>  -0.1600 
 25 C       -6.2340    -6.8500    -0.8470 C.3   1 <1>  -0.1600 
 26 C      -12.6370    -0.8500     0.1590 C.3   1 <1>  -0.1600 
 27 C       -7.4680    -7.7610    -0.9170 C.3   1 <1>  -0.1600 
 28 H       -1.8160     1.9480    -0.0940 H     1 <1>   0.0800 
 29 H       -1.6380     1.0810    -1.6140 H     1 <1>   0.0800 
 30 H       -0.2610     1.3140    -0.5680 H     1 <1>   0.0800 
 31 H       -2.3580    -2.3610     1.2900 H     1 <1>   0.0800 
 32 H       -3.5660    -2.6580     0.0760 H     1 <1>   0.0800 
 33 H       -4.5100    -0.5480    -1.2310 H     1 <1>   0.0800 
 34 H       -3.8750     1.0110    -0.7990 H     1 <1>   0.0800 
 35 H       -3.9700    -1.1590     2.6690 H     1 <1>   0.0800 
 36 H       -4.5870    -2.7360     2.2980 H     1 <1>   0.0800 
 37 H       -6.0970     0.6290     0.1900 H     1 <1>   0.0800 
 38 H       -4.8920     0.8650     1.4150 H     1 <1>   0.0800 
 39 H      -10.4080     0.7220    -0.5850 H     1 <1>   0.0800 
 40 H       -9.4880     0.4170     0.8630 H     1 <1>   0.0800 
 41 H      -10.4640    -2.8630    -1.6460 H     1 <1>   0.0800 
 42 H      -11.0230    -1.2790    -2.0930 H     1 <1>   0.0800 
 43 H       -9.6560    -5.4360     0.4310 H     1 <1>   0.0800 
 44 H       -8.7620    -6.6440     1.3020 H     1 <1>   0.0800 
 45 H       -6.1810    -6.5380     1.2840 H     1 <1>   0.0800 
 46 H       -5.4100    -5.2820     0.3550 H     1 <1>   0.0800 
 47 H      -11.8850     0.7610     1.3720 H     1 <1>   0.0800 
 48 H      -11.3180    -0.8080     1.8580 H     1 <1>   0.0800 
 49 H      -11.9200    -2.8750     0.3100 H     1 <1>   0.0800 
 50 H      -12.8670    -2.5690    -1.1160 H     1 <1>   0.0800 
 51 H       -8.8420    -6.2980    -1.6970 H     1 <1>   0.0800 
 52 H       -9.6090    -7.5770    -0.8030 H     1 <1>   0.0800 
 53 H       -5.3410    -7.4480    -0.8310 H     1 <1>   0.0800 
 54 H       -6.1960    -6.2260    -1.7230 H     1 <1>   0.0800 
 55 H      -12.9390    -0.1760    -0.6240 H     1 <1>   0.0800 
 56 H      -13.4960    -1.0560     0.7730 H     1 <1>   0.0800 
 57 H       -7.4580    -8.3170    -1.8390 H     1 <1>   0.0800 
 58 H       -7.4410    -8.4630    -0.1020 H     1 <1>   0.0800 
@<TRIPOS>BOND
  1   1   2  2   
  2   2   3  am  
  3   2   4  1   
  4   3   5  1   
  5   3   6  1   
  6   4  28  1   
  7   4  29  1   
  8   4  30  1   
  9   5   7  1   
 10   5  31  1   
 11   5  32  1   
 12   6   8  1   
 13   6  33  1   
 14   6  34  1   
 15   7   9  1   
 16   7  35  1   
 17   7  36  1   
 18   8   9  1   
 19   8  37  1   
 20   8  38  1   
 21   9  10  1   
 22  10  11  ar  
 23  10  12  ar  
 24  11  13  ar  
 25  12  14  ar  
 26  13  15  ar  
 27  13  16  1   
 28  14  15  ar  
 29  14  17  1   
 30  16  18  1   
 31  16  19  1   
 32  17  20  1   
 33  17  21  1   
 34  18  22  1   
 35  18  39  1   
 36  18  40  1   
 37  19  23  1   
 38  19  41  1   
 39  19  42  1   
 40  20  24  1   
 41  20  43  1   
 42  20  44  1   
 43  21  25  1   
 44  21  45  1   
 45  21  46  1   
 46  22  26  1   
 47  22  47  1   
 48  22  48  1   
 49  23  26  1   
 50  23  49  1   
 51  23  50  1   
 52  24  27  1   
 53  24  51  1   
 54  24  52  1   
 55  25  27  1   
 56  25  53  1   
 57  25  54  1   
 58  26  55  1   
 59  26  56  1   
 60  27  57  1   
 61  27  58  1   
@<TRIPOS>SUBSTRUCTURE
  1 ****  10 GROUP 4 **** **** 0

# MOE 2024.06 (io_trps.svl 2023.06)
