@<TRIPOS>MOLECULE
3-(2-Methoxy-ethyl)-8-(2-methoxy-phenyl)-1,6-dimethyl-5,6,7,8-tetrahydro-1H-1,3,
55 58 1 0 0 
SMALL
USER_CHARGES


@<TRIPOS>ATOM
  1 O        1.1940    -0.1160     0.6200 O.2   1 <1>  -0.5740 
  2 C        2.0860     0.6340     0.2820 C.2   1 <1>   0.6870 
  3 N        1.8050     1.9640    -0.0130 N.am  1 <1>  -0.4250 
  4 N        3.3910     0.1650     0.2090 N.am  1 <1>  -0.4410 
  5 C        2.8180     2.8670    -0.3010 C.2   1 <1>   0.7000 
  6 C        0.3800     2.4280    -0.0110 C.3   1 <1>   0.1330 
  7 C        4.3890     1.0690    -0.0950 C.2   1 <1>   0.4210 
  8 C        3.7100    -1.2670     0.4860 C.3   1 <1>   0.0530 
  9 O        2.5760     4.0460    -0.4970 O.2   1 <1>  -0.5740 
 10 C        4.1610     2.3760    -0.3460 C.2   1 <1>   0.2710 
 11 C       -0.0550     2.8320     1.3970 C.3   1 <1>   0.1130 
 12 N        5.7280     0.8410    -0.1760 N.pl3 1 <1>  -0.7030 
 13 N        5.4170     2.9520    -0.5860 N.pl3 1 <1>  -0.7670 
 14 O       -1.3550     3.3180     1.3200 O.3   1 <1>  -0.5640 
 15 C        6.3280     1.9940    -0.4600 C.cat 1 <1>   1.0690 
 16 C        5.7150     4.3700    -0.8750 C.3   1 <1>   0.3490 
 17 C       -1.8890     3.6920     2.5480 C.3   1 <1>   0.0330 
 18 N        7.6490     2.2080    -0.6100 N.pl3 1 <1>  -0.5790 
 19 C        7.1140     4.4780    -1.5070 C.3   1 <1>  -0.0870 
 20 C        8.6180     1.1890    -0.4940 C.ar  1 <1>   0.3050 
 21 C        8.1390     3.6090    -0.7540 C.3   1 <1>   0.1610 
 22 C        7.5810     5.9410    -1.5570 C.3   1 <1>  -0.2460 
 23 C        8.7550     0.4230     0.6750 C.ar  1 <1>   0.0750 
 24 C        9.4550     0.9270    -1.5710 C.ar  1 <1>  -0.1570 
 25 O        7.9150     0.6830     1.7190 O.3   1 <1>  -0.3680 
 26 C        9.7210    -0.5760     0.7380 C.ar  1 <1>  -0.1570 
 27 C       10.4130    -0.0670    -1.5000 C.ar  1 <1>  -0.1570 
 28 C        8.2400     0.2640     3.0300 C.3   1 <1>   0.0330 
 29 C       10.5460    -0.8170    -0.3460 C.ar  1 <1>  -0.1570 
 30 H       -0.2590     1.6380    -0.3650 H     1 <1>   0.0730 
 31 H        0.2650     3.2690    -0.6730 H     1 <1>   0.0730 
 32 H        2.8390    -1.8840     0.3410 H     1 <1>   0.0730 
 33 H        4.0410    -1.3740     1.5040 H     1 <1>   0.0730 
 34 H        4.4790    -1.6140    -0.1810 H     1 <1>   0.0730 
 35 H        0.5760     3.6160     1.7790 H     1 <1>   0.0730 
 36 H       -0.0460     1.9790     2.0540 H     1 <1>   0.0730 
 37 H        6.2490     0.0030     0.0740 H     1 <1>   0.4450 
 38 H        5.6770     4.9300     0.0460 H     1 <1>   0.0730 
 39 H        4.9750     4.7740    -1.5470 H     1 <1>   0.0730 
 40 H       -2.8890     4.0510     2.3820 H     1 <1>   0.0730 
 41 H       -1.2880     4.4760     2.9750 H     1 <1>   0.0730 
 42 H       -1.9160     2.8350     3.2000 H     1 <1>   0.0730 
 43 H        7.0520     4.1250    -2.5230 H     1 <1>   0.0730 
 44 H        9.0750     3.6190    -1.2870 H     1 <1>   0.0730 
 45 H        8.3140     4.0140     0.2290 H     1 <1>   0.0730 
 46 H        7.6700     6.3530    -0.5660 H     1 <1>   0.0730 
 47 H        6.8820     6.5410    -2.1150 H     1 <1>   0.0730 
 48 H        8.5400     6.0120    -2.0410 H     1 <1>   0.0730 
 49 H        9.3600     1.5000    -2.4760 H     1 <1>   0.1430 
 50 H        9.8520    -1.1810     1.6170 H     1 <1>   0.1430 
 51 H       11.0590    -0.2600    -2.3420 H     1 <1>   0.1430 
 52 H        7.5380     0.7090     3.7120 H     1 <1>   0.0730 
 53 H        9.2360     0.5950     3.2690 H     1 <1>   0.0730 
 54 H        8.1700    -0.8080     3.0880 H     1 <1>   0.0730 
 55 H       11.2940    -1.5900    -0.2930 H     1 <1>   0.1430 
@<TRIPOS>BOND
  1   1   2  2   
  2   2   3  am  
  3   2   4  am  
  4   3   5  am  
  5   3   6  1   
  6   4   7  1   
  7   4   8  1   
  8   5   9  2   
  9   5  10  1   
 10   6  11  1   
 11   6  30  1   
 12   6  31  1   
 13   7  10  2   
 14   7  12  1   
 15   8  32  1   
 16   8  33  1   
 17   8  34  1   
 18  10  13  1   
 19  11  14  1   
 20  11  35  1   
 21  11  36  1   
 22  12  15  ar  
 23  12  37  1   
 24  13  15  ar  
 25  13  16  1   
 26  14  17  1   
 27  15  18  ar  
 28  16  19  1   
 29  16  38  1   
 30  16  39  1   
 31  17  40  1   
 32  17  41  1   
 33  17  42  1   
 34  18  20  1   
 35  18  21  1   
 36  19  21  1   
 37  19  22  1   
 38  19  43  1   
 39  20  23  ar  
 40  20  24  ar  
 41  21  44  1   
 42  21  45  1   
 43  22  46  1   
 44  22  47  1   
 45  22  48  1   
 46  23  25  1   
 47  23  26  ar  
 48  24  27  ar  
 49  24  49  1   
 50  25  28  1   
 51  26  29  ar  
 52  26  50  1   
 53  27  29  ar  
 54  27  51  1   
 55  28  52  1   
 56  28  53  1   
 57  28  54  1   
 58  29  55  1   
@<TRIPOS>SUBSTRUCTURE
  1 ****   7 GROUP 4 **** **** 0

# MOE 2024.06 (io_trps.svl 2023.06)
