@<TRIPOS>MOLECULE
8-(4-Chloro-phenyl)-1,3-dimethyl-5,6,7,8-tetrahydro-1H-1,3,4b,8,9-pentaaza-fluor
41 44 1 0 0 
SMALL
USER_CHARGES


@<TRIPOS>ATOM
  1 CL      -0.1380     0.0880     0.0160 Cl    1 <1>  -0.1860 
  2 C       -1.0790     1.5560     0.0290 C.ar  1 <1>   0.1680 
  3 C       -1.2390     2.2510     1.2140 C.ar  1 <1>  -0.1590 
  4 C       -1.6540     2.0040    -1.1460 C.ar  1 <1>  -0.1590 
  5 C       -1.9900     3.4140     1.2210 C.ar  1 <1>  -0.1590 
  6 C       -2.4040     3.1690    -1.1320 C.ar  1 <1>  -0.1590 
  7 C       -2.5800     3.8800     0.0500 C.ar  1 <1>   0.3030 
  8 N       -3.3490     5.0480     0.0630 N.pl3 1 <1>  -0.5810 
  9 C       -4.6950     5.0500     0.1190 C.cat 1 <1>   1.0680 
 10 C       -2.6160     6.3450     0.0810 C.3   1 <1>   0.1590 
 11 N       -5.4950     3.9870     0.1930 N.pl3 1 <1>  -0.7050 
 12 N       -5.4210     6.1600     0.1120 N.pl3 1 <1>  -0.7680 
 13 C       -3.4620     7.4540    -0.5610 C.3   1 <1>  -0.1690 
 14 C       -6.7820     4.4360     0.2420 C.2   1 <1>   0.4190 
 15 C       -6.7710     5.7870     0.1940 C.2   1 <1>   0.2690 
 16 C       -4.8730     7.5290     0.0320 C.3   1 <1>   0.3470 
 17 N       -7.9400     3.6890     0.3240 N.am  1 <1>  -0.4430 
 18 C       -8.0130     6.4960     0.2300 C.2   1 <1>   0.6980 
 19 C       -9.1560     4.3630     0.3300 C.2   1 <1>   0.6850 
 20 C       -7.8940     2.1970     0.3670 C.3   1 <1>   0.0500 
 21 O       -8.0400     7.7150     0.1850 O.2   1 <1>  -0.5760 
 22 N       -9.1840     5.7550     0.3140 N.am  1 <1>  -0.4270 
 23 O      -10.1940     3.7350     0.3420 O.2   1 <1>  -0.5760 
 24 C      -10.5070     6.4520     0.3470 C.3   1 <1>   0.0500 
 25 H       -0.7750     1.8800     2.1130 H     1 <1>   0.1410 
 26 H       -1.5060     1.4460    -2.0550 H     1 <1>   0.1410 
 27 H       -2.1130     3.9600     2.1390 H     1 <1>   0.1410 
 28 H       -2.8440     3.5270    -2.0470 H     1 <1>   0.1410 
 29 H       -1.6870     6.2450    -0.4570 H     1 <1>   0.0700 
 30 H       -2.3870     6.6030     1.1010 H     1 <1>   0.0700 
 31 H       -5.1720     3.0230     0.2100 H     1 <1>   0.4430 
 32 H       -3.5310     7.2820    -1.6210 H     1 <1>   0.0700 
 33 H       -2.9720     8.4030    -0.4280 H     1 <1>   0.0700 
 34 H       -4.8400     7.9560     1.0210 H     1 <1>   0.0700 
 35 H       -5.5020     8.1480    -0.5870 H     1 <1>   0.0700 
 36 H       -7.0610     1.8630     0.9580 H     1 <1>   0.0700 
 37 H       -7.8060     1.8080    -0.6330 H     1 <1>   0.0700 
 38 H       -8.7940     1.8040     0.8090 H     1 <1>   0.0700 
 39 H      -10.4040     7.4600     0.7110 H     1 <1>   0.0700 
 40 H      -11.1870     5.9290     0.9980 H     1 <1>   0.0700 
 41 H      -10.9260     6.4780    -0.6430 H     1 <1>   0.0700 
@<TRIPOS>BOND
  1   1   2  1   
  2   2   3  ar  
  3   2   4  ar  
  4   3   5  ar  
  5   3  25  1   
  6   4   6  ar  
  7   4  26  1   
  8   5   7  ar  
  9   5  27  1   
 10   6   7  ar  
 11   6  28  1   
 12   7   8  1   
 13   8   9  ar  
 14   8  10  1   
 15   9  11  ar  
 16   9  12  ar  
 17  10  13  1   
 18  10  29  1   
 19  10  30  1   
 20  11  14  1   
 21  11  31  1   
 22  12  15  1   
 23  12  16  1   
 24  13  16  1   
 25  13  32  1   
 26  13  33  1   
 27  14  15  2   
 28  14  17  1   
 29  15  18  1   
 30  16  34  1   
 31  16  35  1   
 32  17  19  am  
 33  17  20  1   
 34  18  21  2   
 35  18  22  am  
 36  19  22  am  
 37  19  23  2   
 38  20  36  1   
 39  20  37  1   
 40  20  38  1   
 41  22  24  1   
 42  24  39  1   
 43  24  40  1   
 44  24  41  1   
@<TRIPOS>SUBSTRUCTURE
  1 ****  11 GROUP 4 **** **** 0

# MOE 2024.06 (io_trps.svl 2023.06)
