@<TRIPOS>MOLECULE
1-(2,5-Dimethoxy-benzenesulfonyl)-piperidine-4-carboxylic acid methylamide
45 46 1 0 0 
SMALL
USER_CHARGES


@<TRIPOS>ATOM
  1 S       -0.1610    -0.2110     1.5640 S.o2  1 <1>   1.4470 
  2 O        0.1340    -1.3790     2.3680 O.2   1 <1>  -0.6500 
  3 O       -0.6360     0.9690     2.2570 O.2   1 <1>  -0.6500 
  4 N        1.2930     0.2210     0.8020 N.am  1 <1>  -0.8490 
  5 C       -1.2550    -0.7360     0.2140 C.ar  1 <1>  -0.0090 
  6 C        2.3780     0.3280     1.7820 C.3   1 <1>   0.1960 
  7 C        1.1550     1.4500     0.0110 C.3   1 <1>   0.1960 
  8 C       -2.0870     0.1500    -0.4670 C.ar  1 <1>   0.0830 
  9 C       -1.2650    -2.0680    -0.1860 C.ar  1 <1>  -0.1500 
 10 C        3.7130     0.6020     1.0850 C.3   1 <1>  -0.1600 
 11 C        2.4530     1.7570    -0.7400 C.3   1 <1>  -0.1600 
 12 O       -2.0970     1.4640    -0.1570 O.3   1 <1>  -0.3620 
 13 C       -2.9030    -0.2810    -1.5030 C.ar  1 <1>  -0.1500 
 14 C       -2.0850    -2.5130    -1.2190 C.ar  1 <1>   0.0830 
 15 C        3.6430     1.8730     0.2240 C.3   1 <1>  -0.0190 
 16 C       -3.1970     1.9190     0.6000 C.3   1 <1>   0.0400 
 17 C       -2.9040    -1.6100    -1.8740 C.ar  1 <1>  -0.1500 
 18 O       -2.1380    -3.8020    -1.6400 O.3   1 <1>  -0.3630 
 19 C        4.9520     2.1280    -0.5200 C.2   1 <1>   0.5690 
 20 C       -1.3400    -4.8000    -1.0410 C.3   1 <1>   0.0400 
 21 O        5.3740     1.2980    -1.2880 O.2   1 <1>  -0.5700 
 22 N        5.6110     3.2970    -0.2940 N.am  1 <1>  -0.7300 
 23 C        6.8900     3.6920    -0.9380 C.3   1 <1>   0.0600 
 24 H        2.4650    -0.5960     2.3300 H     1 <1>   0.0800 
 25 H        2.1570     1.1150     2.4850 H     1 <1>   0.0800 
 26 H        0.8960     2.2760     0.6540 H     1 <1>   0.0800 
 27 H        0.3700     1.3290    -0.7140 H     1 <1>   0.0800 
 28 H       -0.6170    -2.7530     0.3300 H     1 <1>   0.1500 
 29 H        3.9610    -0.2450     0.4670 H     1 <1>   0.0800 
 30 H        4.4870     0.7050     1.8230 H     1 <1>   0.0800 
 31 H        2.3390     2.6740    -1.2890 H     1 <1>   0.0800 
 32 H        2.6360     0.9700    -1.4520 H     1 <1>   0.0800 
 33 H       -3.5300     0.4250    -2.0180 H     1 <1>   0.1500 
 34 H        3.4600     2.7060     0.8780 H     1 <1>   0.0800 
 35 H       -3.0490     2.9630     0.8120 H     1 <1>   0.0800 
 36 H       -3.2400     1.3640     1.5210 H     1 <1>   0.0800 
 37 H       -4.1000     1.7810     0.0330 H     1 <1>   0.0800 
 38 H       -3.5340    -1.9570    -2.6730 H     1 <1>   0.1500 
 39 H       -1.5490    -5.7340    -1.5310 H     1 <1>   0.0800 
 40 H       -1.5940    -4.8710     0.0020 H     1 <1>   0.0800 
 41 H       -0.3030    -4.5440    -1.1700 H     1 <1>   0.0800 
 42 H        5.2200     3.9740     0.3620 H     1 <1>   0.3700 
 43 H        7.2270     2.9200    -1.6100 H     1 <1>   0.0800 
 44 H        7.6440     3.8490    -0.1870 H     1 <1>   0.0800 
 45 H        6.7520     4.6010    -1.4980 H     1 <1>   0.0800 
@<TRIPOS>BOND
  1   1   2  2   
  2   1   3  2   
  3   1   4  am  
  4   1   5  1   
  5   4   6  1   
  6   4   7  1   
  7   5   8  ar  
  8   5   9  ar  
  9   6  10  1   
 10   6  24  1   
 11   6  25  1   
 12   7  11  1   
 13   7  26  1   
 14   7  27  1   
 15   8  12  1   
 16   8  13  ar  
 17   9  14  ar  
 18   9  28  1   
 19  10  15  1   
 20  10  29  1   
 21  10  30  1   
 22  11  15  1   
 23  11  31  1   
 24  11  32  1   
 25  12  16  1   
 26  13  17  ar  
 27  13  33  1   
 28  14  17  ar  
 29  14  18  1   
 30  15  19  1   
 31  15  34  1   
 32  16  35  1   
 33  16  36  1   
 34  16  37  1   
 35  17  38  1   
 36  18  20  1   
 37  19  21  2   
 38  19  22  am  
 39  20  39  1   
 40  20  40  1   
 41  20  41  1   
 42  22  23  1   
 43  22  42  1   
 44  23  43  1   
 45  23  44  1   
 46  23  45  1   
@<TRIPOS>SUBSTRUCTURE
  1 ****   4 GROUP 4 **** **** 0

# MOE 2024.06 (io_trps.svl 2023.06)
