@<TRIPOS>MOLECULE
3,3-Dimethyl-4,7-dioxo-6-phenylacetylamino-4lambda*4*-thia-1-aza-bicyclo[3.2.0]h
41 43 1 0 0 
SMALL
USER_CHARGES


@<TRIPOS>ATOM
  1 S       -1.4690     0.4100     0.7570 S.o   1 <1>   0.1340 
  2 O       -1.7610     1.0570     2.0840 O.2   1 <1>  -0.5000 
  3 C        0.2390     0.7420     0.2190 C.3   1 <1>   0.1930 
  4 C       -1.1430    -1.3580     0.9700 C.3   1 <1>   0.3970 
  5 C        0.6580    -0.5100    -0.6060 C.3   1 <1>   0.1140 
  6 C        0.2850     2.0090    -0.6490 C.3   1 <1>  -0.2400 
  7 C        1.1390     0.9710     1.4530 C.3   1 <1>  -0.2400 
  8 N       -0.1720    -1.6870    -0.1280 N.am  1 <1>  -0.5850 
  9 C       -2.1290    -2.3660     0.3390 C.3   1 <1>   0.2780 
 10 C        2.1800    -0.7180    -0.6340 C.2   1 <1>   0.9060 
 11 C       -1.1840    -2.2400    -0.8600 C.2   1 <1>   0.5770 
 12 N       -3.5140    -1.8390     0.1260 N.am  1 <1>  -0.6550 
 13 O        2.7290    -1.4500     0.2010 O.co2 1 <1>  -0.9000 
 14 O        2.8320    -0.0910    -1.4780 O.co2 1 <1>  -0.9000 
 15 O       -1.3460    -2.4290    -2.0430 O.2   1 <1>  -0.5700 
 16 C       -4.4750    -1.8340     1.0800 C.2   1 <1>   0.5690 
 17 O       -4.3370    -2.4330     2.1180 O.2   1 <1>  -0.5700 
 18 C       -5.7530    -1.0460     0.8460 C.3   1 <1>   0.0440 
 19 C       -5.5690     0.0540    -0.1960 C.ar  1 <1>  -0.1440 
 20 C       -4.8530     1.1960     0.1280 C.ar  1 <1>  -0.1500 
 21 C       -6.0910    -0.0840    -1.4740 C.ar  1 <1>  -0.1500 
 22 C       -4.6530     2.1870    -0.8160 C.ar  1 <1>  -0.1500 
 23 C       -5.8940     0.9090    -2.4180 C.ar  1 <1>  -0.1500 
 24 C       -5.1740     2.0440    -2.0900 C.ar  1 <1>  -0.1500 
 25 H       -0.7340    -1.6590     1.9180 H     1 <1>   0.0000 
 26 H        0.3830    -0.3380    -1.6300 H     1 <1>   0.0800 
 27 H       -0.3620     1.9030    -1.5010 H     1 <1>   0.0800 
 28 H        1.2880     2.1810    -1.0010 H     1 <1>   0.0800 
 29 H       -0.0350     2.8620    -0.0790 H     1 <1>   0.0800 
 30 H        1.1810     0.0820     2.0570 H     1 <1>   0.0800 
 31 H        0.7570     1.7750     2.0550 H     1 <1>   0.0800 
 32 H        2.1430     1.2220     1.1580 H     1 <1>   0.0800 
 33 H       -2.1110    -3.3350     0.8040 H     1 <1>   0.0000 
 34 H       -3.6530    -1.2820    -0.7250 H     1 <1>   0.3700 
 35 H       -6.0570    -0.6050     1.7770 H     1 <1>   0.0800 
 36 H       -6.5230    -1.7290     0.5410 H     1 <1>   0.0800 
 37 H       -4.4380     1.3190     1.1160 H     1 <1>   0.1500 
 38 H       -6.6530    -0.9620    -1.7430 H     1 <1>   0.1500 
 39 H       -4.0920     3.0680    -0.5560 H     1 <1>   0.1500 
 40 H       -6.3010     0.7990    -3.4080 H     1 <1>   0.1500 
 41 H       -5.0200     2.8160    -2.8250 H     1 <1>   0.1500 
@<TRIPOS>BOND
  1   1   2  2   
  2   1   3  1   
  3   1   4  1   
  4   3   5  1   
  5   3   6  1   
  6   3   7  1   
  7   4   8  1   
  8   4   9  1   
  9   4  25  1   
 10   5   8  1   
 11   5  10  1   
 12   5  26  1   
 13   6  27  1   
 14   6  28  1   
 15   6  29  1   
 16   7  30  1   
 17   7  31  1   
 18   7  32  1   
 19   8  11  am  
 20   9  11  1   
 21   9  12  1   
 22   9  33  1   
 23  10  13  ar  
 24  10  14  ar  
 25  11  15  2   
 26  12  16  am  
 27  12  34  1   
 28  16  17  2   
 29  16  18  1   
 30  18  19  1   
 31  18  35  1   
 32  18  36  1   
 33  19  20  ar  
 34  19  21  ar  
 35  20  22  ar  
 36  20  37  1   
 37  21  23  ar  
 38  21  38  1   
 39  22  24  ar  
 40  22  39  1   
 41  23  24  ar  
 42  23  40  1   
 43  24  41  1   
@<TRIPOS>SUBSTRUCTURE
  1 ****   1 GROUP 4 **** **** 0

# MOE 2024.06 (io_trps.svl 2023.06)
