@<TRIPOS>MOLECULE
3-(2-Hydroxy-phenyl)-4,5-dihydro-isoxazole-5-carboxylic acid (2-hydroxy-1,1-dime
38 39 1 0 0 
SMALL
USER_CHARGES


@<TRIPOS>ATOM
  1 O        0.2530     0.1930     1.7930 O.2   1 <1>  -0.5700 
  2 C       -0.1790    -0.9160     1.5790 C.2   1 <1>   0.5690 
  3 N        0.2690    -1.6980     0.5570 N.am  1 <1>  -0.7300 
  4 C       -1.3080    -1.4410     2.4670 C.3   1 <1>   0.2610 
  5 C        1.2740    -1.4350    -0.4820 C.3   1 <1>   0.3000 
  6 O       -1.2630    -2.8540     2.5250 O.3   1 <1>  -0.2170 
  7 C       -2.6830    -1.1800     1.8670 C.3   1 <1>  -0.0990 
  8 C        1.4030    -2.7060    -1.3580 C.3   1 <1>   0.1200 
  9 C        0.8080    -0.2450    -1.3290 C.3   1 <1>  -0.2400 
 10 C        2.6230    -1.1330     0.1760 C.3   1 <1>  -0.2400 
 11 N       -2.2110    -3.4190     1.8090 N.2   1 <1>  -0.5130 
 12 C       -3.0490    -2.5610     1.3880 C.2   1 <1>   0.3030 
 13 O        0.1580    -3.1840    -1.7720 O.3   1 <1>  -0.6800 
 14 C       -4.1890    -2.8370     0.5320 C.ar  1 <1>   0.0860 
 15 C       -5.2940    -1.9840     0.3450 C.ar  1 <1>   0.0820 
 16 C       -4.2120    -4.0410    -0.1780 C.ar  1 <1>  -0.1500 
 17 O       -5.3980    -0.8080     0.9870 O.3   1 <1>  -0.5330 
 18 C       -6.3360    -2.3230    -0.5060 C.ar  1 <1>  -0.1500 
 19 C       -5.2490    -4.3830    -1.0250 C.ar  1 <1>  -0.1500 
 20 C       -6.3170    -3.5210    -1.1920 C.ar  1 <1>  -0.1500 
 21 H       -0.1680    -2.6250     0.4600 H     1 <1>   0.3700 
 22 H       -1.2180    -1.0540     3.4640 H     1 <1>   0.0800 
 23 H       -2.6440    -0.4660     1.0640 H     1 <1>   0.0800 
 24 H       -3.3610    -0.8470     2.6300 H     1 <1>   0.0800 
 25 H        1.8830    -3.4930    -0.8020 H     1 <1>   0.0800 
 26 H        1.9930    -2.5010    -2.2340 H     1 <1>   0.0800 
 27 H        1.4900    -0.0790    -2.1430 H     1 <1>   0.0800 
 28 H        0.7780     0.6500    -0.7350 H     1 <1>   0.0800 
 29 H       -0.1720    -0.4240    -1.7320 H     1 <1>   0.0800 
 30 H        2.9120    -1.9400     0.8240 H     1 <1>   0.0800 
 31 H        2.5710    -0.2270     0.7530 H     1 <1>   0.0800 
 32 H        3.3820    -1.0050    -0.5730 H     1 <1>   0.0800 
 33 H       -0.3690    -2.4610    -2.1630 H     1 <1>   0.4000 
 34 H       -3.3910    -4.7300    -0.0660 H     1 <1>   0.1500 
 35 H       -6.2250    -0.3300     0.7940 H     1 <1>   0.4500 
 36 H       -7.1710    -1.6600    -0.6380 H     1 <1>   0.1500 
 37 H       -5.2260    -5.3200    -1.5540 H     1 <1>   0.1500 
 38 H       -7.1250    -3.7850    -1.8530 H     1 <1>   0.1500 
@<TRIPOS>BOND
  1   1   2  2   
  2   2   3  am  
  3   2   4  1   
  4   3   5  1   
  5   3  21  1   
  6   4   6  1   
  7   4   7  1   
  8   4  22  1   
  9   5   8  1   
 10   5   9  1   
 11   5  10  1   
 12   6  11  1   
 13   7  12  1   
 14   7  23  1   
 15   7  24  1   
 16   8  13  1   
 17   8  25  1   
 18   8  26  1   
 19   9  27  1   
 20   9  28  1   
 21   9  29  1   
 22  10  30  1   
 23  10  31  1   
 24  10  32  1   
 25  11  12  2   
 26  12  14  1   
 27  13  33  1   
 28  14  15  ar  
 29  14  16  ar  
 30  15  17  1   
 31  15  18  ar  
 32  16  19  ar  
 33  16  34  1   
 34  17  35  1   
 35  18  20  ar  
 36  18  36  1   
 37  19  20  ar  
 38  19  37  1   
 39  20  38  1   
@<TRIPOS>SUBSTRUCTURE
  1 ****  12 GROUP 4 **** **** 0

# MOE 2024.06 (io_trps.svl 2023.06)
