@<TRIPOS>MOLECULE
2-Ethylamino-6-methyl-10-oxo-10H-1,9,10a-triaza-anthracene-3-carboxylic acid (te
52 55 1 0 0 
SMALL
USER_CHARGES


@<TRIPOS>ATOM
  1 O        0.4520    -0.3810     0.3960 O.2   1 <1>  -0.5700 
  2 C        0.3840    -1.5650     0.1580 C.2   1 <1>   0.8650 
  3 N       -0.8390    -2.2250     0.3780 N.pl3 1 <1>  -0.5760 
  4 C        1.5200    -2.2770    -0.3320 C.ar  1 <1>   0.0860 
  5 C       -0.9490    -3.5470     0.1090 C.cat 1 <1>   0.7390 
  6 C       -1.9350    -1.5450     0.8640 C.2   1 <1>   0.1910 
  7 C        1.3370    -3.6290    -0.5870 C.ar  1 <1>   0.6590 
  8 C        2.7790    -1.7450    -0.5690 C.ar  1 <1>  -0.1500 
  9 N        0.1250    -4.1970    -0.3610 N.pl3 1 <1>  -0.6530 
 10 C       -2.1650    -4.2080     0.3250 C.2   1 <1>  -0.1800 
 11 C       -3.1330    -2.1710     1.0830 C.2   1 <1>  -0.1380 
 12 N        2.2480    -4.4520    -1.0410 N.ar  1 <1>  -0.6200 
 13 C        3.7860    -2.5770    -1.0340 C.ar  1 <1>   0.0860 
 14 C       -3.2560    -3.5370     0.8070 C.2   1 <1>  -0.1500 
 15 C       -4.3440    -1.4240     1.6190 C.3   1 <1>  -0.1020 
 16 C        3.4510    -3.9340    -1.2640 C.ar  1 <1>   0.4100 
 17 C        5.1200    -2.0630    -1.2490 C.2   1 <1>   0.5440 
 18 N        4.3840    -4.8090    -1.7360 N.pl3 1 <1>  -0.8690 
 19 O        5.8450    -2.4890    -2.1280 O.2   1 <1>  -0.5700 
 20 N        5.5950    -1.0680    -0.4460 N.am  1 <1>  -0.7300 
 21 C        4.2260    -6.2420    -2.0490 C.3   1 <1>   0.2090 
 22 C        6.9820    -0.5550    -0.3970 C.3   1 <1>   0.1400 
 23 C        5.5860    -6.9090    -1.9010 C.3   1 <1>  -0.2400 
 24 C        7.4470    -0.5230     1.0680 C.3   1 <1>   0.2000 
 25 O        6.4090    -0.0830     1.8980 O.3   1 <1>  -0.5600 
 26 C        8.5950     0.4330     1.3500 C.3   1 <1>  -0.1600 
 27 C        6.9160     0.4900     3.0640 C.3   1 <1>   0.1200 
 28 C        8.4030     0.7440     2.8230 C.3   1 <1>  -0.1600 
 29 H       -1.8360    -0.4890     1.0760 H     1 <1>   0.1500 
 30 H        2.9670    -0.6960    -0.3940 H     1 <1>   0.1500 
 31 H        0.0940    -5.1940    -0.5780 H     1 <1>   0.4500 
 32 H       -2.2350    -5.2580     0.1060 H     1 <1>   0.1500 
 33 H       -4.1970    -4.0370     0.9770 H     1 <1>   0.1500 
 34 H       -5.1570    -1.4840     0.9170 H     1 <1>   0.0800 
 35 H       -4.1190    -0.3860     1.7890 H     1 <1>   0.0800 
 36 H       -4.6630    -1.8570     2.5510 H     1 <1>   0.0800 
 37 H        5.2680    -4.3910    -2.0780 H     1 <1>   0.4000 
 38 H        5.1030    -0.8070     0.4170 H     1 <1>   0.3700 
 39 H        3.8670    -6.3500    -3.0590 H     1 <1>   0.0800 
 40 H        3.5190    -6.6950    -1.3750 H     1 <1>   0.0800 
 41 H        6.9980     0.4390    -0.8080 H     1 <1>   0.0800 
 42 H        7.6410    -1.1730    -0.9830 H     1 <1>   0.0800 
 43 H        6.2920    -6.4760    -2.5870 H     1 <1>   0.0800 
 44 H        5.5010    -7.9580    -2.1170 H     1 <1>   0.0800 
 45 H        5.9460    -6.7950    -0.8940 H     1 <1>   0.0800 
 46 H        7.7100    -1.5170     1.3880 H     1 <1>   0.0800 
 47 H        8.4800     1.3300     0.7660 H     1 <1>   0.0800 
 48 H        9.5510    -0.0120     1.1400 H     1 <1>   0.0800 
 49 H        6.7570    -0.1950     3.8800 H     1 <1>   0.0800 
 50 H        6.3800     1.4060     3.2430 H     1 <1>   0.0800 
 51 H        8.6770     1.7550     3.0650 H     1 <1>   0.0800 
 52 H        8.9800     0.0690     3.4310 H     1 <1>   0.0800 
@<TRIPOS>BOND
  1   1   2  2   
  2   2   3  1   
  3   2   4  1   
  4   3   5  ar  
  5   3   6  1   
  6   4   7  ar  
  7   4   8  ar  
  8   5   9  ar  
  9   5  10  1   
 10   6  11  2   
 11   6  29  1   
 12   7   9  1   
 13   7  12  ar  
 14   8  13  ar  
 15   8  30  1   
 16   9  31  1   
 17  10  14  2   
 18  10  32  1   
 19  11  14  1   
 20  11  15  1   
 21  12  16  ar  
 22  13  16  ar  
 23  13  17  1   
 24  14  33  1   
 25  15  34  1   
 26  15  35  1   
 27  15  36  1   
 28  16  18  1   
 29  17  19  2   
 30  17  20  am  
 31  18  21  1   
 32  18  37  1   
 33  20  22  1   
 34  20  38  1   
 35  21  23  1   
 36  21  39  1   
 37  21  40  1   
 38  22  24  1   
 39  22  41  1   
 40  22  42  1   
 41  23  43  1   
 42  23  44  1   
 43  23  45  1   
 44  24  25  1   
 45  24  26  1   
 46  24  46  1   
 47  25  27  1   
 48  26  28  1   
 49  26  47  1   
 50  26  48  1   
 51  27  28  1   
 52  27  49  1   
 53  27  50  1   
 54  28  51  1   
 55  28  52  1   
@<TRIPOS>SUBSTRUCTURE
  1 ****   8 GROUP 4 **** **** 0

# MOE 2024.06 (io_trps.svl 2023.06)
