@<TRIPOS>MOLECULE
1,3-Dimethyl-8-(3-methyl-piperidin-1-ylmethyl)-7-(3-phenyl-propyl)-3,7-dihydro-p
62 65 1 0 0 
SMALL
USER_CHARGES


@<TRIPOS>ATOM
  1 O        0.4270    -0.2300     1.4620 O.2   1 <1>  -0.5700 
  2 C        1.2810     0.4990     1.0000 C.2   1 <1>   0.6900 
  3 N        0.9130     1.6070     0.2440 N.am  1 <1>  -0.4200 
  4 N        2.6220     0.2200     1.2200 N.am  1 <1>  -0.4360 
  5 C        1.8670     2.4210    -0.3530 C.2   1 <1>   0.7030 
  6 C       -0.5430     1.8940     0.0440 C.3   1 <1>   0.0600 
  7 C        3.5620     1.0420     0.6300 C.2   1 <1>   0.4260 
  8 C        3.0410    -0.9520     2.0460 C.3   1 <1>   0.0600 
  9 O        1.5300     3.3660    -1.0470 O.2   1 <1>  -0.5700 
 10 C        3.2530     2.1150    -0.1370 C.2   1 <1>   0.2770 
 11 N        4.9110     0.9460     0.6930 N.pl3 1 <1>  -0.7000 
 12 N        4.4690     2.6810    -0.5450 N.pl3 1 <1>  -0.7640 
 13 C        5.4370     1.9390    -0.0140 C.cat 1 <1>   0.6560 
 14 C        4.5680     3.8970    -1.3940 C.3   1 <1>   0.3540 
 15 C        6.9580     2.1240    -0.1310 C.3   1 <1>   0.2540 
 16 C        4.4340     5.1370    -0.5120 C.3   1 <1>  -0.1600 
 17 N        7.6880     0.9030     0.3030 N.3   1 <1>  -0.8100 
 18 C        4.4650     6.4280    -1.3390 C.3   1 <1>  -0.0170 
 19 C        7.7480    -0.1080    -0.7750 C.3   1 <1>   0.1100 
 20 C        9.0420     1.2270     0.7850 C.3   1 <1>   0.1100 
 21 C        4.3540     7.6280    -0.4160 C.ar  1 <1>  -0.1430 
 22 C        8.3540    -1.4170    -0.2470 C.3   1 <1>  -0.0800 
 23 C        9.6950    -0.0280     1.3710 C.3   1 <1>  -0.1600 
 24 C        5.4940     8.2650     0.0510 C.ar  1 <1>  -0.1500 
 25 C        3.1070     8.0950    -0.0290 C.ar  1 <1>  -0.1500 
 26 C        9.7490    -1.1650     0.3430 C.3   1 <1>  -0.1600 
 27 C        8.4290    -2.4700    -1.3590 C.3   1 <1>  -0.2400 
 28 C        5.3880     9.3550     0.8970 C.ar  1 <1>  -0.1500 
 29 C        3.0010     9.1850     0.8170 C.ar  1 <1>  -0.1500 
 30 C        4.1420     9.8150     1.2820 C.ar  1 <1>  -0.1500 
 31 H       -0.9220     1.2870    -0.7600 H     1 <1>   0.0800 
 32 H       -0.7040     2.9320    -0.1920 H     1 <1>   0.0800 
 33 H       -1.0940     1.6660     0.9410 H     1 <1>   0.0800 
 34 H        2.2360    -1.2750     2.6850 H     1 <1>   0.0800 
 35 H        3.8770    -0.6900     2.6690 H     1 <1>   0.0800 
 36 H        3.3150    -1.7700     1.4020 H     1 <1>   0.0800 
 37 H        5.5110     0.2620     1.1680 H     1 <1>   0.4500 
 38 H        3.7870     3.8860    -2.1380 H     1 <1>   0.0800 
 39 H        5.5140     3.9140    -1.9080 H     1 <1>   0.0800 
 40 H        7.2280     2.9490     0.5050 H     1 <1>   0.0800 
 41 H        7.2260     2.3770    -1.1410 H     1 <1>   0.0800 
 42 H        5.2350     5.1620     0.2050 H     1 <1>   0.0800 
 43 H        3.5010     5.1010     0.0230 H     1 <1>   0.0800 
 44 H        3.6460     6.4410    -2.0380 H     1 <1>   0.0800 
 45 H        5.3810     6.4930    -1.9020 H     1 <1>   0.0800 
 46 H        8.3490     0.2610    -1.5910 H     1 <1>   0.0800 
 47 H        6.7590    -0.3100    -1.1490 H     1 <1>   0.0800 
 48 H        8.9890     1.9790     1.5540 H     1 <1>   0.0800 
 49 H        9.6450     1.6060    -0.0250 H     1 <1>   0.0800 
 50 H        7.7120    -1.7950     0.5310 H     1 <1>   0.0800 
 51 H        9.1360    -0.3430     2.2350 H     1 <1>   0.0800 
 52 H       10.6930     0.2080     1.6970 H     1 <1>   0.0800 
 53 H        6.4700     7.9200    -0.2400 H     1 <1>   0.1500 
 54 H        2.2120     7.6140    -0.3830 H     1 <1>   0.1500 
 55 H       10.4320    -0.8950    -0.4440 H     1 <1>   0.0800 
 56 H       10.1190    -2.0600     0.8120 H     1 <1>   0.0800 
 57 H        9.0610    -2.1340    -2.1620 H     1 <1>   0.0800 
 58 H        7.4480    -2.6720    -1.7540 H     1 <1>   0.0800 
 59 H        8.8310    -3.3900    -0.9720 H     1 <1>   0.0800 
 60 H        6.2750     9.8460     1.2570 H     1 <1>   0.1500 
 61 H        2.0310     9.5450     1.1140 H     1 <1>   0.1500 
 62 H        4.0590    10.6630     1.9390 H     1 <1>   0.1500 
@<TRIPOS>BOND
  1   1   2  2   
  2   2   3  am  
  3   2   4  am  
  4   3   5  am  
  5   3   6  1   
  6   4   7  1   
  7   4   8  1   
  8   5   9  2   
  9   5  10  1   
 10   6  31  1   
 11   6  32  1   
 12   6  33  1   
 13   7  10  2   
 14   7  11  1   
 15   8  34  1   
 16   8  35  1   
 17   8  36  1   
 18  10  12  1   
 19  11  13  ar  
 20  11  37  1   
 21  12  13  ar  
 22  12  14  1   
 23  13  15  1   
 24  14  16  1   
 25  14  38  1   
 26  14  39  1   
 27  15  17  1   
 28  15  40  1   
 29  15  41  1   
 30  16  18  1   
 31  16  42  1   
 32  16  43  1   
 33  17  19  1   
 34  17  20  1   
 35  18  21  1   
 36  18  44  1   
 37  18  45  1   
 38  19  22  1   
 39  19  46  1   
 40  19  47  1   
 41  20  23  1   
 42  20  48  1   
 43  20  49  1   
 44  21  24  ar  
 45  21  25  ar  
 46  22  26  1   
 47  22  27  1   
 48  22  50  1   
 49  23  26  1   
 50  23  51  1   
 51  23  52  1   
 52  24  28  ar  
 53  24  53  1   
 54  25  29  ar  
 55  25  54  1   
 56  26  55  1   
 57  26  56  1   
 58  27  57  1   
 59  27  58  1   
 60  27  59  1   
 61  28  30  ar  
 62  28  60  1   
 63  29  30  ar  
 64  29  61  1   
 65  30  62  1   
@<TRIPOS>SUBSTRUCTURE
  1 ****  12 GROUP 4 **** **** 0

# MOE 2024.06 (io_trps.svl 2023.06)
