@<TRIPOS>MOLECULE
4-tert-Butyl-N-[3-(3,4-dimethoxy-phenyl)-[1,2,4]oxadiazol-5-ylmethyl]-benzamide
54 56 1 0 0 
SMALL
USER_CHARGES


@<TRIPOS>ATOM
  1 O       -1.8860    -0.7440    -2.0250 O.2   1 <1>  -0.5700 
  2 C       -2.5200    -0.5200    -1.0180 C.2   1 <1>   0.5440 
  3 N       -2.7130    -1.5780    -0.1880 N.am  1 <1>  -0.7300 
  4 C       -3.0540     0.8010    -0.7430 C.ar  1 <1>   0.0860 
  5 C       -3.8350    -1.7470     0.7730 C.3   1 <1>   0.3200 
  6 C       -3.7060     1.5310    -1.7310 C.ar  1 <1>  -0.1500 
  7 C       -2.9430     1.3920     0.5130 C.ar  1 <1>  -0.1500 
  8 C       -4.5110    -3.1010     0.6160 C.2   1 <1>   0.2980 
  9 C       -4.2390     2.7810    -1.4770 C.ar  1 <1>  -0.1500 
 10 C       -3.4760     2.6410     0.7700 C.ar  1 <1>  -0.1500 
 11 O       -3.7960    -4.1770     0.8080 O.3   1 <1>  -0.0190 
 12 N       -5.7290    -3.3020     0.3160 N.2   1 <1>  -0.5650 
 13 C       -4.1390     3.3630    -0.2160 C.ar  1 <1>  -0.1430 
 14 N       -4.6290    -5.1490     0.6080 N.2   1 <1>  -0.4100 
 15 C       -5.7720    -4.6390     0.3140 C.2   1 <1>   0.4620 
 16 C       -4.7190     4.7550     0.1190 C.3   1 <1>   0.1430 
 17 C       -6.9840    -5.3840     0.0130 C.ar  1 <1>   0.0540 
 18 C       -5.4250     5.4210    -1.0750 C.3   1 <1>  -0.2400 
 19 C       -3.5850     5.6890     0.5650 C.3   1 <1>  -0.2400 
 20 C       -5.7490     4.6250     1.2510 C.3   1 <1>  -0.2400 
 21 C       -6.9970    -6.7780     0.0160 C.ar  1 <1>  -0.1500 
 22 C       -8.1860    -4.7430    -0.2900 C.ar  1 <1>  -0.1500 
 23 C       -8.1380    -7.5090    -0.2620 C.ar  1 <1>   0.0830 
 24 C       -9.3360    -5.4530    -0.5820 C.ar  1 <1>  -0.1500 
 25 O       -7.9840    -8.8620    -0.2040 O.3   1 <1>  -0.3620 
 26 C       -9.3320    -6.8460    -0.5810 C.ar  1 <1>   0.0830 
 27 C       -9.0110    -9.6770     0.3160 C.3   1 <1>   0.0400 
 28 O      -10.4480    -7.5620    -0.8990 O.3   1 <1>  -0.3630 
 29 C      -11.6150    -6.9510    -1.4030 C.3   1 <1>   0.0400 
 30 H       -2.2830    -2.4480    -0.5130 H     1 <1>   0.3700 
 31 H       -4.5690    -0.9760     0.6210 H     1 <1>   0.0800 
 32 H       -3.4560    -1.6630     1.7760 H     1 <1>   0.0800 
 33 H       -3.7900     1.1050    -2.7170 H     1 <1>   0.1500 
 34 H       -2.4230     0.8680     1.2950 H     1 <1>   0.1500 
 35 H       -4.7300     3.2840    -2.2890 H     1 <1>   0.1500 
 36 H       -3.3640     3.0530     1.7570 H     1 <1>   0.1500 
 37 H       -4.7370     5.5650    -1.8890 H     1 <1>   0.0800 
 38 H       -5.8140     6.3830    -0.7960 H     1 <1>   0.0800 
 39 H       -6.2470     4.8150    -1.4140 H     1 <1>   0.0800 
 40 H       -3.1090     5.3260     1.4570 H     1 <1>   0.0800 
 41 H       -3.9620     6.6760     0.7680 H     1 <1>   0.0800 
 42 H       -2.8410     5.7600    -0.2090 H     1 <1>   0.0800 
 43 H       -6.5310     3.9460     0.9610 H     1 <1>   0.0800 
 44 H       -6.1900     5.5800     1.4740 H     1 <1>   0.0800 
 45 H       -5.2940     4.2520     2.1500 H     1 <1>   0.0800 
 46 H       -6.0940    -7.3150     0.2440 H     1 <1>   0.1500 
 47 H       -8.2210    -3.6680    -0.3010 H     1 <1>   0.1500 
 48 H      -10.2260    -4.8980    -0.8080 H     1 <1>   0.1500 
 49 H       -8.5710   -10.6000     0.6460 H     1 <1>   0.0800 
 50 H       -9.7250    -9.8750    -0.4630 H     1 <1>   0.0800 
 51 H       -9.4790    -9.1730     1.1430 H     1 <1>   0.0800 
 52 H      -12.3180    -7.7260    -1.6480 H     1 <1>   0.0800 
 53 H      -11.3630    -6.3940    -2.2890 H     1 <1>   0.0800 
 54 H      -12.0290    -6.3090    -0.6460 H     1 <1>   0.0800 
@<TRIPOS>BOND
  1   1   2  2   
  2   2   3  am  
  3   2   4  1   
  4   3   5  1   
  5   3  30  1   
  6   4   6  ar  
  7   4   7  ar  
  8   5   8  1   
  9   5  31  1   
 10   5  32  1   
 11   6   9  ar  
 12   6  33  1   
 13   7  10  ar  
 14   7  34  1   
 15   8  11  1   
 16   8  12  2   
 17   9  13  ar  
 18   9  35  1   
 19  10  13  ar  
 20  10  36  1   
 21  11  14  1   
 22  12  15  1   
 23  13  16  1   
 24  14  15  2   
 25  15  17  1   
 26  16  18  1   
 27  16  19  1   
 28  16  20  1   
 29  17  21  ar  
 30  17  22  ar  
 31  18  37  1   
 32  18  38  1   
 33  18  39  1   
 34  19  40  1   
 35  19  41  1   
 36  19  42  1   
 37  20  43  1   
 38  20  44  1   
 39  20  45  1   
 40  21  23  ar  
 41  21  46  1   
 42  22  24  ar  
 43  22  47  1   
 44  23  25  1   
 45  23  26  ar  
 46  24  26  ar  
 47  24  48  1   
 48  25  27  1   
 49  26  28  1   
 50  27  49  1   
 51  27  50  1   
 52  27  51  1   
 53  28  29  1   
 54  29  52  1   
 55  29  53  1   
 56  29  54  1   
@<TRIPOS>SUBSTRUCTURE
  1 ****  12 GROUP 4 **** **** 0

# MOE 2024.06 (io_trps.svl 2023.06)
