@<TRIPOS>MOLECULE
(3-Ethyl-5-hydroxy-5-trifluoromethyl-4,5-dihydro-pyrazol-1-yl)-thiophen-2-yl-met
30 31 1 0 0 
SMALL
USER_CHARGES


@<TRIPOS>ATOM
  1 S       -0.6930     1.0290     0.3450 S.3   1 <1>  -0.0800 
  2 C        0.5540     1.8520     1.2950 C.2   1 <1>  -0.0450 
  3 C       -0.2700    -0.5360     1.0030 C.2   1 <1>  -0.1100 
  4 C        0.7570     3.2760     1.1770 C.2   1 <1>   0.7150 
  5 C        1.2150     0.9180     2.0280 C.2   1 <1>  -0.1500 
  6 C        0.7510    -0.4200     1.8700 C.2   1 <1>  -0.1500 
  7 O        1.8640     3.7240     1.3970 O.2   1 <1>  -0.5700 
  8 N       -0.2660     4.1590     0.8420 N.am  1 <1>  -0.2980 
  9 N       -1.6190     3.9570     1.0660 N.2   1 <1>  -0.5120 
 10 C       -0.0440     5.4410     0.1050 C.3   1 <1>   0.5800 
 11 C       -2.2740     4.9740     0.7300 C.2   1 <1>   0.3280 
 12 O        0.0640     5.0330    -1.2280 O.3   1 <1>  -0.6800 
 13 C        1.1090     6.4360     0.5690 C.3   1 <1>   1.0200 
 14 C       -1.4280     6.1080     0.2210 C.3   1 <1>  -0.0990 
 15 C       -3.7820     5.1290     0.8280 C.3   1 <1>  -0.0990 
 16 F        1.1650     6.5830     1.8920 F     1 <1>  -0.3400 
 17 F        2.3370     6.1170     0.1670 F     1 <1>  -0.3400 
 18 F        0.9070     7.6680     0.0980 F     1 <1>  -0.3400 
 19 C       -4.4560     5.2160    -0.5480 C.3   1 <1>  -0.2400 
 20 H       -0.8360    -1.3880     0.6680 H     1 <1>   0.1500 
 21 H        2.0370     1.1450     2.6860 H     1 <1>   0.1500 
 22 H        1.2030    -1.2320     2.4130 H     1 <1>   0.1500 
 23 H       -0.4900     4.2350    -1.3330 H     1 <1>   0.4000 
 24 H       -1.7690     6.5000    -0.7200 H     1 <1>   0.0800 
 25 H       -1.4300     6.8910     0.9570 H     1 <1>   0.0800 
 26 H       -4.0120     6.0070     1.4050 H     1 <1>   0.0800 
 27 H       -4.1780     4.2780     1.3560 H     1 <1>   0.0800 
 28 H       -4.1340     6.0930    -1.0810 H     1 <1>   0.0800 
 29 H       -5.5250     5.2650    -0.4300 H     1 <1>   0.0800 
 30 H       -4.2190     4.3440    -1.1340 H     1 <1>   0.0800 
@<TRIPOS>BOND
  1   1   2  1   
  2   1   3  1   
  3   2   4  1   
  4   2   5  2   
  5   3   6  2   
  6   3  20  1   
  7   4   7  2   
  8   4   8  am  
  9   5   6  1   
 10   5  21  1   
 11   6  22  1   
 12   8   9  1   
 13   8  10  1   
 14   9  11  2   
 15  10  12  1   
 16  10  13  1   
 17  10  14  1   
 18  11  14  1   
 19  11  15  1   
 20  12  23  1   
 21  13  16  1   
 22  13  17  1   
 23  13  18  1   
 24  14  24  1   
 25  14  25  1   
 26  15  19  1   
 27  15  26  1   
 28  15  27  1   
 29  19  28  1   
 30  19  29  1   
 31  19  30  1   
@<TRIPOS>SUBSTRUCTURE
  1 ****   8 GROUP 4 **** **** 0

# MOE 2024.06 (io_trps.svl 2023.06)
