@<TRIPOS>MOLECULE
3-(3-Hydroxy-propyl)-8-(2-methoxy-5-methyl-phenyl)-1,6,7-trimethyl-1H,8H-imidazo
56 59 1 0 0 
SMALL
USER_CHARGES


@<TRIPOS>ATOM
  1 O        0.9730     0.2230    -1.9110 O.2   1 <1>  -0.5740 
  2 C        1.9110     0.8690    -1.4910 C.2   1 <1>   0.6870 
  3 N        1.7140     2.1640    -1.0240 N.am  1 <1>  -0.4250 
  4 N        3.1830     0.3100    -1.4810 N.am  1 <1>  -0.4410 
  5 C        2.7720     2.9310    -0.5520 C.2   1 <1>   0.7000 
  6 C        0.3320     2.7330    -1.0140 C.3   1 <1>   0.1340 
  7 C        4.2320     1.0830    -1.0250 C.2   1 <1>   0.4210 
  8 C        3.4140    -1.0800    -1.9780 C.3   1 <1>   0.0530 
  9 O        2.5870     4.0650    -0.1450 O.2   1 <1>  -0.5740 
 10 C        4.0750     2.3480    -0.5630 C.2   1 <1>   0.2710 
 11 C       -0.3780     2.3660     0.2920 C.3   1 <1>  -0.1660 
 12 N        5.5480     0.7350    -0.9490 N.pl3 1 <1>  -0.7030 
 13 N        5.3530     2.7870    -0.1770 N.pl3 1 <1>  -0.6330 
 14 C       -1.7950     2.9350     0.3100 C.3   1 <1>   0.1130 
 15 C        6.1850     1.7850    -0.4250 C.cat 1 <1>   1.0690 
 16 C        6.1020     3.7850     0.4100 C.2   1 <1>   0.2350 
 17 O       -2.3790     2.5970     1.5130 O.3   1 <1>  -0.6830 
 18 N        7.4440     2.0710    -0.0770 N.pl3 1 <1>  -0.5550 
 19 C        7.3820     3.3450     0.4770 C.2   1 <1>   0.1580 
 20 C        5.4510     5.0800     0.8540 C.3   1 <1>  -0.1090 
 21 C        8.5400     1.1830    -0.1790 C.ar  1 <1>   0.3050 
 22 C        8.6150     4.0210     1.0550 C.3   1 <1>  -0.1090 
 23 C        8.5060    -0.0860     0.4140 C.ar  1 <1>   0.0760 
 24 C        9.6640     1.5660    -0.8970 C.ar  1 <1>  -0.1560 
 25 O        7.3760    -0.4540     1.0870 O.3   1 <1>  -0.3680 
 26 C        9.6040    -0.9310     0.2920 C.ar  1 <1>  -0.1560 
 27 C       10.7540     0.7230    -1.0190 C.ar  1 <1>  -0.1500 
 28 C        7.3990    -1.5310     2.0040 C.3   1 <1>   0.0330 
 29 C       10.7180    -0.5240    -0.4200 C.ar  1 <1>  -0.1560 
 30 C       11.9830     1.1490    -1.8020 C.3   1 <1>  -0.1030 
 31 H       -0.2260     2.3500    -1.8520 H     1 <1>   0.0730 
 32 H        0.3710     3.8050    -1.1180 H     1 <1>   0.0730 
 33 H        2.5010    -1.6500    -1.9520 H     1 <1>   0.0730 
 34 H        4.1380    -1.5830    -1.3620 H     1 <1>   0.0730 
 35 H        3.7680    -1.0470    -2.9940 H     1 <1>   0.0730 
 36 H        0.1700     2.7770     1.1230 H     1 <1>   0.0730 
 37 H       -0.4260     1.2950     0.3820 H     1 <1>   0.0730 
 38 H        6.0010    -0.1630    -1.1090 H     1 <1>   0.4450 
 39 H       -2.3960     2.5260    -0.4860 H     1 <1>   0.0730 
 40 H       -1.7840     4.0090     0.2390 H     1 <1>   0.0730 
 41 H       -2.4500     1.6270     1.6010 H     1 <1>   0.3950 
 42 H        4.6920     4.8760     1.5880 H     1 <1>   0.0730 
 43 H        4.9910     5.5670     0.0130 H     1 <1>   0.0730 
 44 H        6.1720     5.7490     1.2840 H     1 <1>   0.0730 
 45 H        9.0800     3.3780     1.7820 H     1 <1>   0.0730 
 46 H        8.3560     4.9450     1.5380 H     1 <1>   0.0730 
 47 H        9.3250     4.2340     0.2770 H     1 <1>   0.0730 
 48 H        9.6870     2.5310    -1.3700 H     1 <1>   0.1440 
 49 H        9.6170    -1.9100     0.7350 H     1 <1>   0.1440 
 50 H        6.4590    -1.5500     2.5260 H     1 <1>   0.0730 
 51 H        8.2000    -1.3780     2.7070 H     1 <1>   0.0730 
 52 H        7.5340    -2.4520     1.4660 H     1 <1>   0.0730 
 53 H       11.5620    -1.1870    -0.5090 H     1 <1>   0.1440 
 54 H       11.9990     2.2150    -1.9450 H     1 <1>   0.0730 
 55 H       11.9860     0.6720    -2.7660 H     1 <1>   0.0730 
 56 H       12.8770     0.8660    -1.2750 H     1 <1>   0.0730 
@<TRIPOS>BOND
  1   1   2  2   
  2   2   3  am  
  3   2   4  am  
  4   3   5  am  
  5   3   6  1   
  6   4   7  1   
  7   4   8  1   
  8   5   9  2   
  9   5  10  1   
 10   6  11  1   
 11   6  31  1   
 12   6  32  1   
 13   7  10  2   
 14   7  12  1   
 15   8  33  1   
 16   8  34  1   
 17   8  35  1   
 18  10  13  1   
 19  11  14  1   
 20  11  36  1   
 21  11  37  1   
 22  12  15  ar  
 23  12  38  1   
 24  13  15  ar  
 25  13  16  1   
 26  14  17  1   
 27  14  39  1   
 28  14  40  1   
 29  15  18  ar  
 30  16  19  2   
 31  16  20  1   
 32  17  41  1   
 33  18  19  1   
 34  18  21  1   
 35  19  22  1   
 36  20  42  1   
 37  20  43  1   
 38  20  44  1   
 39  21  23  ar  
 40  21  24  ar  
 41  22  45  1   
 42  22  46  1   
 43  22  47  1   
 44  23  25  1   
 45  23  26  ar  
 46  24  27  ar  
 47  24  48  1   
 48  25  28  1   
 49  26  29  ar  
 50  26  49  1   
 51  27  29  ar  
 52  27  30  1   
 53  28  50  1   
 54  28  51  1   
 55  28  52  1   
 56  29  53  1   
 57  30  54  1   
 58  30  55  1   
 59  30  56  1   
@<TRIPOS>SUBSTRUCTURE
  1 ****  15 GROUP 4 **** **** 0

# MOE 2024.06 (io_trps.svl 2023.06)
