@<TRIPOS>MOLECULE
1-(4-Ethoxy-3-methyl-benzenesulfonyl)-piperidine-4-carboxylic acid (pyridin-4-yl
56 58 1 0 0 
SMALL
USER_CHARGES


@<TRIPOS>ATOM
  1 S        0.2800    -0.2690    -2.1690 S.o2  1 <1>   1.4470 
  2 O        0.7860    -1.3810    -2.9420 O.2   1 <1>  -0.6500 
  3 O       -0.0850     0.9570    -2.8490 O.2   1 <1>  -0.6500 
  4 N        1.4870     0.1510    -1.0530 N.am  1 <1>  -0.8490 
  5 C       -1.0810    -0.8400    -1.1130 C.ar  1 <1>  -0.0090 
  6 C        1.1270     1.3440    -0.2800 C.3   1 <1>   0.1960 
  7 C        2.7850     0.3080    -1.7120 C.3   1 <1>   0.1960 
  8 C       -2.3590    -0.3060    -1.2290 C.ar  1 <1>  -0.1500 
  9 C       -0.8750    -1.8270    -0.1580 C.ar  1 <1>  -0.1500 
 10 C        2.1650     1.5950     0.8150 C.3   1 <1>  -0.1600 
 11 C        3.8840     0.5360    -0.6710 C.3   1 <1>  -0.1600 
 12 C       -3.4010    -0.7290    -0.4200 C.ar  1 <1>  -0.1430 
 13 C       -1.9020    -2.2630     0.6590 C.ar  1 <1>  -0.1500 
 14 C        3.5760     1.7500     0.2200 C.3   1 <1>  -0.0190 
 15 C       -3.1750    -1.7150     0.5350 C.ar  1 <1>   0.0820 
 16 C       -4.7840    -0.1130    -0.5830 C.3   1 <1>  -0.0970 
 17 C        4.6560     1.9330     1.2850 C.2   1 <1>   0.5690 
 18 O       -4.2240    -2.0980     1.3080 O.3   1 <1>  -0.3630 
 19 O        4.5310     1.4250     2.3730 O.2   1 <1>  -0.5700 
 20 N        5.7580     2.6540     0.9630 N.am  1 <1>  -0.7300 
 21 C       -4.1010    -3.1040     2.2860 C.3   1 <1>   0.1200 
 22 C        6.9450     2.8000     1.8260 C.3   1 <1>   0.2840 
 23 C       -5.4620    -3.2840     2.9520 C.3   1 <1>  -0.2400 
 24 C        8.1440     2.2740     1.0600 C.ar  1 <1>  -0.1430 
 25 C        9.1260     3.1030     0.5550 C.ar  1 <1>  -0.1500 
 26 C        8.3040     0.9230     0.8250 C.ar  1 <1>  -0.1500 
 27 C       10.1910     2.5550    -0.1410 C.ar  1 <1>   0.1600 
 28 C        9.4070     0.4780     0.1160 C.ar  1 <1>   0.1600 
 29 N       10.3530     1.2620    -0.3740 N.ar  1 <1>  -0.6200 
 30 H        0.1640     1.2040     0.1820 H     1 <1>   0.0800 
 31 H        1.0650     2.2020    -0.9310 H     1 <1>   0.0800 
 32 H        2.7450     1.1340    -2.4040 H     1 <1>   0.0800 
 33 H        3.0210    -0.5840    -2.2690 H     1 <1>   0.0800 
 34 H       -2.5350     0.4570    -1.9690 H     1 <1>   0.1500 
 35 H        0.1080    -2.2560    -0.0540 H     1 <1>   0.1500 
 36 H        2.1440     0.7670     1.5040 H     1 <1>   0.0800 
 37 H        1.9030     2.4820     1.3630 H     1 <1>   0.0800 
 38 H        4.8240     0.6800    -1.1750 H     1 <1>   0.0800 
 39 H        3.9710    -0.3470    -0.0620 H     1 <1>   0.0800 
 40 H       -1.6900    -3.0270     1.3830 H     1 <1>   0.1500 
 41 H        3.5740     2.6310    -0.3980 H     1 <1>   0.0800 
 42 H       -4.7930     0.6300    -1.3590 H     1 <1>   0.0800 
 43 H       -5.0870     0.3480     0.3400 H     1 <1>   0.0800 
 44 H       -5.4950    -0.8800    -0.8330 H     1 <1>   0.0800 
 45 H        5.8850     2.9990     0.0120 H     1 <1>   0.3700 
 46 H       -3.3640    -2.7920     3.0050 H     1 <1>   0.0800 
 47 H       -3.7920    -4.0140     1.8010 H     1 <1>   0.0800 
 48 H        6.8200     2.2420     2.7390 H     1 <1>   0.0800 
 49 H        7.0800     3.8370     2.0780 H     1 <1>   0.0800 
 50 H       -5.7700    -2.3650     3.4180 H     1 <1>   0.0800 
 51 H       -5.4020    -4.0470     3.7060 H     1 <1>   0.0800 
 52 H       -6.1950    -3.5790     2.2220 H     1 <1>   0.0800 
 53 H        9.0760     4.1670     0.6950 H     1 <1>   0.1500 
 54 H        7.5780     0.2170     1.1890 H     1 <1>   0.1500 
 55 H       10.9500     3.2140    -0.5270 H     1 <1>   0.1500 
 56 H        9.5160    -0.5800    -0.0560 H     1 <1>   0.1500 
@<TRIPOS>BOND
  1   1   2  2   
  2   1   3  2   
  3   1   4  am  
  4   1   5  1   
  5   4   6  1   
  6   4   7  1   
  7   5   8  ar  
  8   5   9  ar  
  9   6  10  1   
 10   6  30  1   
 11   6  31  1   
 12   7  11  1   
 13   7  32  1   
 14   7  33  1   
 15   8  12  ar  
 16   8  34  1   
 17   9  13  ar  
 18   9  35  1   
 19  10  14  1   
 20  10  36  1   
 21  10  37  1   
 22  11  14  1   
 23  11  38  1   
 24  11  39  1   
 25  12  15  ar  
 26  12  16  1   
 27  13  15  ar  
 28  13  40  1   
 29  14  17  1   
 30  14  41  1   
 31  15  18  1   
 32  16  42  1   
 33  16  43  1   
 34  16  44  1   
 35  17  19  2   
 36  17  20  am  
 37  18  21  1   
 38  20  22  1   
 39  20  45  1   
 40  21  23  1   
 41  21  46  1   
 42  21  47  1   
 43  22  24  1   
 44  22  48  1   
 45  22  49  1   
 46  23  50  1   
 47  23  51  1   
 48  23  52  1   
 49  24  25  ar  
 50  24  26  ar  
 51  25  27  ar  
 52  25  53  1   
 53  26  28  ar  
 54  26  54  1   
 55  27  29  ar  
 56  27  55  1   
 57  28  29  ar  
 58  28  56  1   
@<TRIPOS>SUBSTRUCTURE
  1 ****   4 GROUP 4 **** **** 0

# MOE 2024.06 (io_trps.svl 2023.06)
