@<TRIPOS>MOLECULE
1-(4-Benzo[1,3]dioxol-5-ylmethyl-piperazin-1-yl)-2-(4-ethyl-phenoxy)-ethanone
55 58 1 0 0 
SMALL
USER_CHARGES


@<TRIPOS>ATOM
  1 O       -0.3830     0.6540    -0.2570 O.2   1 <1>  -0.5700 
  2 C       -1.5760     0.8410    -0.2540 C.2   1 <1>   0.5690 
  3 N       -2.0810     2.1150    -0.4140 N.am  1 <1>  -0.6600 
  4 C       -2.4690    -0.3810    -0.0340 C.3   1 <1>   0.1810 
  5 C       -3.5280     2.4800    -0.2740 C.3   1 <1>   0.1400 
  6 C       -1.1900     3.2290    -0.8720 C.3   1 <1>   0.1400 
  7 O       -3.5550    -0.4030    -0.9500 O.3   1 <1>  -0.3620 
  8 C       -3.7120     3.7820     0.5300 C.3   1 <1>   0.3430 
  9 C       -1.3980     4.4980    -0.0290 C.3   1 <1>   0.3430 
 10 C       -4.5670    -1.2940    -0.8140 C.ar  1 <1>   0.0820 
 11 N       -2.8450     4.9040     0.0180 N.4   1 <1>  -0.9590 
 12 C       -4.5590    -2.3410     0.1030 C.ar  1 <1>  -0.1500 
 13 C       -5.6630    -1.1240    -1.6430 C.ar  1 <1>  -0.1500 
 14 C       -3.0430     6.1560     0.7980 C.3   1 <1>   0.4860 
 15 C       -5.6480    -3.1920     0.1890 C.ar  1 <1>  -0.1500 
 16 C       -6.7490    -1.9770    -1.5540 C.ar  1 <1>  -0.1500 
 17 C       -4.4820     6.6010     0.6270 C.ar  1 <1>  -0.1440 
 18 C       -6.7480    -3.0150    -0.6360 C.ar  1 <1>  -0.1440 
 19 C       -4.9080     7.1110    -0.5980 C.ar  1 <1>  -0.1500 
 20 C       -5.3820     6.4930     1.6890 C.ar  1 <1>  -0.1500 
 21 C       -7.9410    -3.9520    -0.5360 C.3   1 <1>  -0.0170 
 22 C       -6.2310     7.4810    -0.7230 C.ar  1 <1>   0.0820 
 23 C       -6.7090     6.8760     1.5410 C.ar  1 <1>  -0.1500 
 24 C       -8.9520    -3.4270     0.4850 C.3   1 <1>  -0.2400 
 25 O       -6.8490     7.9780    -1.7970 O.3   1 <1>  -0.3630 
 26 C       -7.1080     7.3670     0.3140 C.ar  1 <1>   0.0820 
 27 C       -8.2040     8.2180    -1.4150 C.3   1 <1>   0.4000 
 28 O       -8.3190     7.7890    -0.0590 O.3   1 <1>  -0.3620 
 29 H       -2.8610    -0.3590     0.9650 H     1 <1>   0.0800 
 30 H       -1.8940    -1.2770    -0.1800 H     1 <1>   0.0800 
 31 H       -4.0690     1.7000     0.2310 H     1 <1>   0.0800 
 32 H       -3.9600     2.5920    -1.2540 H     1 <1>   0.0800 
 33 H       -1.3970     3.4400    -1.9060 H     1 <1>   0.0800 
 34 H       -0.1550     2.9390    -0.8060 H     1 <1>   0.0800 
 35 H       -3.4690     3.5810     1.5610 H     1 <1>   0.0800 
 36 H       -4.7500     4.0720     0.4890 H     1 <1>   0.0800 
 37 H       -0.8040     5.2950    -0.4470 H     1 <1>   0.0800 
 38 H       -1.0390     4.3050     0.9690 H     1 <1>   0.0800 
 39 H       -3.1580     5.1030    -0.9410 H     1 <1>   0.4500 
 40 H       -3.7240    -2.5170     0.7530 H     1 <1>   0.1500 
 41 H       -5.6650    -0.3230    -2.3600 H     1 <1>   0.1500 
 42 H       -2.3870     6.9300     0.4350 H     1 <1>   0.0800 
 43 H       -2.8300     5.9860     1.8410 H     1 <1>   0.0800 
 44 H       -5.6370    -3.9970     0.9020 H     1 <1>   0.1500 
 45 H       -7.5950    -1.8300    -2.2020 H     1 <1>   0.1500 
 46 H       -4.2540     7.2320    -1.4430 H     1 <1>   0.1500 
 47 H       -5.0640     6.1140     2.6470 H     1 <1>   0.1500 
 48 H       -7.6090    -4.9330    -0.2440 H     1 <1>   0.0800 
 49 H       -8.4140    -4.0420    -1.4990 H     1 <1>   0.0800 
 50 H       -7.4190     6.8030     2.3470 H     1 <1>   0.1500 
 51 H       -8.4940    -3.3500     1.4550 H     1 <1>   0.0800 
 52 H       -9.7930    -4.0940     0.5510 H     1 <1>   0.0800 
 53 H       -9.3040    -2.4540     0.1920 H     1 <1>   0.0800 
 54 H       -8.8640     7.6380    -2.0360 H     1 <1>   0.0800 
 55 H       -8.4180     9.2700    -1.4800 H     1 <1>   0.0800 
@<TRIPOS>BOND
  1   1   2  2   
  2   2   3  am  
  3   2   4  1   
  4   3   5  1   
  5   3   6  1   
  6   4   7  1   
  7   4  29  1   
  8   4  30  1   
  9   5   8  1   
 10   5  31  1   
 11   5  32  1   
 12   6   9  1   
 13   6  33  1   
 14   6  34  1   
 15   7  10  1   
 16   8  11  1   
 17   8  35  1   
 18   8  36  1   
 19   9  11  1   
 20   9  37  1   
 21   9  38  1   
 22  10  12  ar  
 23  10  13  ar  
 24  11  14  1   
 25  11  39  1   
 26  12  15  ar  
 27  12  40  1   
 28  13  16  ar  
 29  13  41  1   
 30  14  17  1   
 31  14  42  1   
 32  14  43  1   
 33  15  18  ar  
 34  15  44  1   
 35  16  18  ar  
 36  16  45  1   
 37  17  19  ar  
 38  17  20  ar  
 39  18  21  1   
 40  19  22  ar  
 41  19  46  1   
 42  20  23  ar  
 43  20  47  1   
 44  21  24  1   
 45  21  48  1   
 46  21  49  1   
 47  22  25  1   
 48  22  26  ar  
 49  23  26  ar  
 50  23  50  1   
 51  24  51  1   
 52  24  52  1   
 53  24  53  1   
 54  25  27  1   
 55  26  28  1   
 56  27  28  1   
 57  27  54  1   
 58  27  55  1   
@<TRIPOS>SUBSTRUCTURE
  1 ****   5 GROUP 4 **** **** 0

# MOE 2024.06 (io_trps.svl 2023.06)
