@<TRIPOS>MOLECULE
3-Ethyl-7,8-dimethyl-quinoline-2-thiol
30 31 1 0 0 
SMALL
USER_CHARGES


@<TRIPOS>ATOM
  1 S       -0.2640    -0.2060    -1.1440 S.2   1 <1>  -0.3800 
  2 C       -1.5310     0.7340    -0.7540 C.2   1 <1>   0.4260 
  3 N       -2.7300     0.1170    -0.6440 N.am  1 <1>  -0.5470 
  4 C       -1.4580     2.1330    -0.5310 C.2   1 <1>  -0.1240 
  5 C       -3.9130     0.7740    -0.3260 C.ar  1 <1>   0.1170 
  6 C       -2.5930     2.8220    -0.2170 C.2   1 <1>  -0.1780 
  7 C       -0.1290     2.8750    -0.6380 C.3   1 <1>  -0.0220 
  8 C       -3.8520     2.1610    -0.1070 C.ar  1 <1>   0.0280 
  9 C       -5.1350     0.0900    -0.2250 C.ar  1 <1>  -0.1440 
 10 C        0.6720     2.7580     0.6620 C.3   1 <1>  -0.2400 
 11 C       -5.0280     2.8380     0.2120 C.ar  1 <1>  -0.1500 
 12 C       -6.2890     0.7910     0.0940 C.ar  1 <1>  -0.1430 
 13 C       -5.1410    -1.4200    -0.4730 C.3   1 <1>  -0.0970 
 14 C       -6.2220     2.1650     0.3100 C.ar  1 <1>  -0.1500 
 15 C       -7.6530     0.1240     0.2230 C.3   1 <1>  -0.0970 
 16 H       -2.7500    -0.8880    -0.8090 H     1 <1>   0.3700 
 17 H       -2.5750     3.8820    -0.0400 H     1 <1>   0.1500 
 18 H       -0.3130     3.9160    -0.8400 H     1 <1>   0.0800 
 19 H        0.4480     2.4910    -1.4610 H     1 <1>   0.0800 
 20 H        0.1060     3.1580     1.4850 H     1 <1>   0.0800 
 21 H        1.5940     3.3030     0.5780 H     1 <1>   0.0800 
 22 H        0.9000     1.7280     0.8700 H     1 <1>   0.0800 
 23 H       -4.9930     3.8990     0.3820 H     1 <1>   0.1500 
 24 H       -4.4890    -1.9060     0.2300 H     1 <1>   0.0800 
 25 H       -4.7950    -1.6250    -1.4710 H     1 <1>   0.0800 
 26 H       -6.1150    -1.8580    -0.3700 H     1 <1>   0.0800 
 27 H       -7.1140     2.7140     0.5580 H     1 <1>   0.1500 
 28 H       -7.9240    -0.3420    -0.7080 H     1 <1>   0.0800 
 29 H       -8.4150     0.8390     0.4730 H     1 <1>   0.0800 
 30 H       -7.6270    -0.6210     0.9980 H     1 <1>   0.0800 
@<TRIPOS>BOND
  1   1   2  2   
  2   2   3  am  
  3   2   4  1   
  4   3   5  1   
  5   3  16  1   
  6   4   6  2   
  7   4   7  1   
  8   5   8  ar  
  9   5   9  ar  
 10   6   8  1   
 11   6  17  1   
 12   7  10  1   
 13   7  18  1   
 14   7  19  1   
 15   8  11  ar  
 16   9  12  ar  
 17   9  13  1   
 18  10  20  1   
 19  10  21  1   
 20  10  22  1   
 21  11  14  ar  
 22  11  23  1   
 23  12  14  ar  
 24  12  15  1   
 25  13  24  1   
 26  13  25  1   
 27  13  26  1   
 28  14  27  1   
 29  15  28  1   
 30  15  29  1   
 31  15  30  1   
@<TRIPOS>SUBSTRUCTURE
  1 ****   5 GROUP 4 **** **** 0

# MOE 2024.06 (io_trps.svl 2023.06)
