@<TRIPOS>MOLECULE
1-(Indan-5-yloxy)-3-(2-methyl-benzoimidazol-1-yl)-propan-2-ol
46 49 1 0 0 
SMALL
USER_CHARGES


@<TRIPOS>ATOM
  1 O        0.2380     1.1280    -0.5380 O.3   1 <1>  -0.3630 
  2 C        1.3150     0.3220    -0.7110 C.ar  1 <1>   0.0830 
  3 C        0.0000     1.7750     0.6960 C.3   1 <1>   0.1200 
  4 C        2.2810     0.1030     0.2710 C.ar  1 <1>  -0.1500 
  5 C        1.4310    -0.3060    -1.9450 C.ar  1 <1>  -0.1500 
  6 C       -1.3140     2.5530     0.6000 C.3   1 <1>   0.2000 
  7 C        3.3390    -0.7430    -0.0080 C.ar  1 <1>  -0.1440 
  8 C        2.4960    -1.1510    -2.2120 C.ar  1 <1>  -0.1500 
  9 O       -1.5810     3.1040     1.8480 O.3   1 <1>  -0.6800 
 10 C       -2.4840     1.6570     0.1680 C.3   1 <1>   0.0960 
 11 C        3.4450    -1.3600    -1.2290 C.ar  1 <1>  -0.1430 
 12 C        4.4850    -1.1210     0.8970 C.3   1 <1>  -0.0170 
 13 N       -3.7520     2.4150     0.1740 N.pl3 1 <1>   0.0480 
 14 C        4.6750    -2.2300    -1.3000 C.3   1 <1>  -0.0170 
 15 C        5.4750    -1.8190    -0.0520 C.3   1 <1>  -0.1600 
 16 C       -4.1170     3.3480    -0.7450 C.ar  1 <1>  -0.1520 
 17 C       -4.7090     2.4670     1.1440 C.2   1 <1>   0.0060 
 18 C       -5.2840     3.9070    -0.2620 C.ar  1 <1>   0.2270 
 19 C       -3.5580     3.7790    -1.9530 C.ar  1 <1>  -0.1500 
 20 N       -5.6300     3.3370     0.9240 N.2   1 <1>  -0.5650 
 21 C       -4.6920     1.5860     2.3780 C.3   1 <1>  -0.0600 
 22 C       -5.9250     4.9160    -0.9790 C.ar  1 <1>  -0.1500 
 23 C       -4.1960     4.7770    -2.6550 C.ar  1 <1>  -0.1500 
 24 C       -5.3800     5.3460    -2.1690 C.ar  1 <1>  -0.1500 
 25 H        0.8180     2.4450     0.8910 H     1 <1>   0.0800 
 26 H       -0.0660     1.0230     1.4620 H     1 <1>   0.0800 
 27 H        2.2300     0.5710     1.2350 H     1 <1>   0.1500 
 28 H        0.6830    -0.1290    -2.6950 H     1 <1>   0.1500 
 29 H       -1.1890     3.3660    -0.0950 H     1 <1>   0.0800 
 30 H        2.5840    -1.6360    -3.1680 H     1 <1>   0.1500 
 31 H       -2.3870     3.6640     1.8010 H     1 <1>   0.4000 
 32 H       -2.5630     0.8120     0.8250 H     1 <1>   0.0800 
 33 H       -2.3130     1.2890    -0.8270 H     1 <1>   0.0800 
 34 H        4.1360    -1.8040     1.6510 H     1 <1>   0.0800 
 35 H        4.9260    -0.2560     1.3610 H     1 <1>   0.0800 
 36 H        5.2320    -2.0550    -2.2030 H     1 <1>   0.0800 
 37 H        4.3840    -3.2650    -1.2420 H     1 <1>   0.0800 
 38 H        5.9500    -2.6640     0.4150 H     1 <1>   0.0800 
 39 H        6.2300    -1.1100    -0.3450 H     1 <1>   0.0800 
 40 H       -2.6500     3.3360    -2.3230 H     1 <1>   0.1500 
 41 H       -3.7960     1.7540     2.9460 H     1 <1>   0.0800 
 42 H       -4.7480     0.5520     2.0930 H     1 <1>   0.0800 
 43 H       -5.5400     1.8160     2.9990 H     1 <1>   0.0800 
 44 H       -6.8310     5.3320    -0.5810 H     1 <1>   0.1500 
 45 H       -3.7910     5.1290    -3.5870 H     1 <1>   0.1500 
 46 H       -5.8620     6.1240    -2.7350 H     1 <1>   0.1500 
@<TRIPOS>BOND
  1   1   2  1   
  2   1   3  1   
  3   2   4  ar  
  4   2   5  ar  
  5   3   6  1   
  6   3  25  1   
  7   3  26  1   
  8   4   7  ar  
  9   4  27  1   
 10   5   8  ar  
 11   5  28  1   
 12   6   9  1   
 13   6  10  1   
 14   6  29  1   
 15   7  11  ar  
 16   7  12  1   
 17   8  11  ar  
 18   8  30  1   
 19   9  31  1   
 20  10  13  1   
 21  10  32  1   
 22  10  33  1   
 23  11  14  1   
 24  12  15  1   
 25  12  34  1   
 26  12  35  1   
 27  13  16  1   
 28  13  17  1   
 29  14  15  1   
 30  14  36  1   
 31  14  37  1   
 32  15  38  1   
 33  15  39  1   
 34  16  18  ar  
 35  16  19  ar  
 36  17  20  2   
 37  17  21  1   
 38  18  20  1   
 39  18  22  ar  
 40  19  23  ar  
 41  19  40  1   
 42  21  41  1   
 43  21  42  1   
 44  21  43  1   
 45  22  24  ar  
 46  22  44  1   
 47  23  24  ar  
 48  23  45  1   
 49  24  46  1   
@<TRIPOS>SUBSTRUCTURE
  1 ****   1 GROUP 4 **** **** 0

# MOE 2024.06 (io_trps.svl 2023.06)
