@<TRIPOS>MOLECULE
1-(4-Methoxy-3-methyl-benzenesulfonyl)-piperidine-4-carboxylic acid (furan-2-ylm
51 53 1 0 0 
SMALL
USER_CHARGES


@<TRIPOS>ATOM
  1 S        0.0590     0.7270    -2.6980 S.o2  1 <1>   1.4470 
  2 O        0.6100    -0.1320    -3.7230 O.2   1 <1>  -0.6500 
  3 O       -0.7690     1.8520    -3.0810 O.2   1 <1>  -0.6500 
  4 N        1.3680     1.3710    -1.8310 N.am  1 <1>  -0.8490 
  5 C       -0.7830    -0.2910    -1.4550 C.ar  1 <1>  -0.0090 
  6 C        0.9320     2.3540    -0.8350 C.3   1 <1>   0.1960 
  7 C        2.3700     1.9430    -2.7320 C.3   1 <1>   0.1960 
  8 C       -2.0760    -0.0020    -1.0350 C.ar  1 <1>  -0.1500 
  9 C       -0.1410    -1.3790    -0.8760 C.ar  1 <1>  -0.1500 
 10 C        2.1160     2.7600     0.0440 C.3   1 <1>  -0.1600 
 11 C        3.6150     2.3460    -1.9380 C.3   1 <1>  -0.1600 
 12 C       -2.7140    -0.7610    -0.0680 C.ar  1 <1>  -0.1430 
 13 C       -0.7610    -2.1500     0.0890 C.ar  1 <1>  -0.1500 
 14 C        3.2670     3.3270    -0.8050 C.3   1 <1>  -0.0190 
 15 C       -2.0540    -1.8450     0.5030 C.ar  1 <1>   0.0820 
 16 C       -4.1310    -0.4050     0.3600 C.3   1 <1>  -0.0970 
 17 C        4.4880     3.6690     0.0420 C.2   1 <1>   0.5690 
 18 O       -2.7140    -2.5600     1.4500 O.3   1 <1>  -0.3630 
 19 O        4.8890     4.8060     0.0640 O.2   1 <1>  -0.5700 
 20 N        5.0970     2.6880     0.7480 N.am  1 <1>  -0.7300 
 21 C       -2.1390    -3.6930     2.0640 C.3   1 <1>   0.0400 
 22 C        6.3320     2.8520     1.5310 C.3   1 <1>   0.3200 
 23 C        7.1430     1.5750     1.4150 C.2   1 <1>  -0.0400 
 24 O        6.6160     0.4410     1.8400 O.3   1 <1>  -0.2800 
 25 C        8.3820     1.3640     0.9190 C.2   1 <1>  -0.1500 
 26 C        7.5020    -0.5120     1.6310 C.2   1 <1>  -0.0100 
 27 C        8.6180    -0.0090     1.0630 C.2   1 <1>  -0.1500 
 28 H        0.1660     1.9280    -0.2090 H     1 <1>   0.0800 
 29 H        0.5220     3.2230    -1.3260 H     1 <1>   0.0800 
 30 H        1.9580     2.7980    -3.2450 H     1 <1>   0.0800 
 31 H        2.6580     1.2150    -3.4730 H     1 <1>   0.0800 
 32 H       -2.5880     0.8360    -1.4780 H     1 <1>   0.1500 
 33 H        0.8610    -1.6200    -1.1900 H     1 <1>   0.1500 
 34 H        2.4430     1.8960     0.5950 H     1 <1>   0.0800 
 35 H        1.7950     3.5010     0.7540 H     1 <1>   0.0800 
 36 H        4.3280     2.8020    -2.6020 H     1 <1>   0.0800 
 37 H        4.0640     1.4540    -1.5370 H     1 <1>   0.0800 
 38 H       -0.2230    -2.9800     0.5050 H     1 <1>   0.1500 
 39 H        2.9250     4.2430    -1.2550 H     1 <1>   0.0800 
 40 H       -4.4980     0.4520    -0.1740 H     1 <1>   0.0800 
 41 H       -4.1500    -0.1890     1.4130 H     1 <1>   0.0800 
 42 H       -4.7870    -1.2360     0.1690 H     1 <1>   0.0800 
 43 H        4.7700     1.7210     0.6980 H     1 <1>   0.3700 
 44 H       -2.8510    -4.0900     2.7640 H     1 <1>   0.0800 
 45 H       -1.2450    -3.3930     2.5820 H     1 <1>   0.0800 
 46 H       -1.9210    -4.4260     1.3080 H     1 <1>   0.0800 
 47 H        6.0830     3.0310     2.5620 H     1 <1>   0.0800 
 48 H        6.8990     3.6890     1.1580 H     1 <1>   0.0800 
 49 H        9.0690     2.0740     0.4950 H     1 <1>   0.1500 
 50 H        7.2590    -1.5210     1.9170 H     1 <1>   0.1500 
 51 H        9.5160    -0.5240     0.7690 H     1 <1>   0.1500 
@<TRIPOS>BOND
  1   1   2  2   
  2   1   3  2   
  3   1   4  am  
  4   1   5  1   
  5   4   6  1   
  6   4   7  1   
  7   5   8  ar  
  8   5   9  ar  
  9   6  10  1   
 10   6  28  1   
 11   6  29  1   
 12   7  11  1   
 13   7  30  1   
 14   7  31  1   
 15   8  12  ar  
 16   8  32  1   
 17   9  13  ar  
 18   9  33  1   
 19  10  14  1   
 20  10  34  1   
 21  10  35  1   
 22  11  14  1   
 23  11  36  1   
 24  11  37  1   
 25  12  15  ar  
 26  12  16  1   
 27  13  15  ar  
 28  13  38  1   
 29  14  17  1   
 30  14  39  1   
 31  15  18  1   
 32  16  40  1   
 33  16  41  1   
 34  16  42  1   
 35  17  19  2   
 36  17  20  am  
 37  18  21  1   
 38  20  22  1   
 39  20  43  1   
 40  21  44  1   
 41  21  45  1   
 42  21  46  1   
 43  22  23  1   
 44  22  47  1   
 45  22  48  1   
 46  23  24  1   
 47  23  25  2   
 48  24  26  1   
 49  25  27  1   
 50  25  49  1   
 51  26  27  2   
 52  26  50  1   
 53  27  51  1   
@<TRIPOS>SUBSTRUCTURE
  1 ****   4 GROUP 4 **** **** 0

# MOE 2024.06 (io_trps.svl 2023.06)
