@<TRIPOS>MOLECULE
1-(3,4-Dimethyl-benzenesulfonyl)-4-(piperidine-1-sulfonyl)-piperazine
53 55 1 0 0 
SMALL
USER_CHARGES


@<TRIPOS>ATOM
  1 S        0.5800     0.1290    -1.6520 S.o2  1 <1>   1.5760 
  2 O        0.8260     1.4000    -2.2950 O.2   1 <1>  -0.6500 
  3 O        0.4360    -1.0770    -2.4360 O.2   1 <1>  -0.6500 
  4 N        1.7960    -0.1160    -0.5120 N.am  1 <1>  -0.8490 
  5 N       -0.7560     0.2700    -0.6320 N.am  1 <1>  -0.8490 
  6 C        3.0520    -0.5070    -1.1660 C.3   1 <1>   0.1960 
  7 C        2.0210     1.0840     0.3120 C.3   1 <1>   0.1960 
  8 C       -1.9010     0.8290    -1.3520 C.3   1 <1>   0.1960 
  9 C       -1.0990    -1.0160    -0.0170 C.3   1 <1>   0.1960 
 10 C        4.1730    -0.7400    -0.1350 C.3   1 <1>   0.1960 
 11 C        3.1430     0.8590     1.3430 C.3   1 <1>   0.1960 
 12 C       -3.0630     1.0820    -0.3850 C.3   1 <1>  -0.1600 
 13 C       -2.2250    -0.8290     1.0050 C.3   1 <1>  -0.1600 
 14 N        4.4040     0.4550     0.6980 N.am  1 <1>  -0.8490 
 15 C       -3.4630    -0.1980     0.3590 C.3   1 <1>  -0.1600 
 16 S        5.6280     0.2190     1.8450 S.o2  1 <1>   1.4470 
 17 O        5.6700     1.4190     2.6530 O.2   1 <1>  -0.6500 
 18 O        5.3530    -1.0530     2.4790 O.2   1 <1>  -0.6500 
 19 C        7.1250     0.1130     0.8270 C.ar  1 <1>  -0.0090 
 20 C        7.8440    -1.0710     0.7190 C.ar  1 <1>  -0.1500 
 21 C        7.5770     1.2110     0.1090 C.ar  1 <1>  -0.1500 
 22 C        8.9750    -1.1700    -0.0780 C.ar  1 <1>  -0.1440 
 23 C        8.7040     1.1290    -0.6880 C.ar  1 <1>  -0.1500 
 24 C        9.4090    -0.0580    -0.7890 C.ar  1 <1>  -0.1440 
 25 C        9.7150    -2.4990    -0.1490 C.3   1 <1>  -0.0970 
 26 C       10.6460    -0.1120    -1.6750 C.3   1 <1>  -0.0970 
 27 H        3.3620     0.2590    -1.8580 H     1 <1>   0.0800 
 28 H        2.8980    -1.4160    -1.7220 H     1 <1>   0.0800 
 29 H        1.1150     1.3370     0.8350 H     1 <1>   0.0800 
 30 H        2.2890     1.9210    -0.3120 H     1 <1>   0.0800 
 31 H       -2.2090     0.1530    -2.1330 H     1 <1>   0.0800 
 32 H       -1.6210     1.7650    -1.8070 H     1 <1>   0.0800 
 33 H       -0.2350    -1.4220     0.4840 H     1 <1>   0.0800 
 34 H       -1.4060    -1.7180    -0.7750 H     1 <1>   0.0800 
 35 H        5.0770    -0.9940    -0.6610 H     1 <1>   0.0800 
 36 H        3.8990    -1.5790     0.4840 H     1 <1>   0.0800 
 37 H        2.8290     0.1040     2.0450 H     1 <1>   0.0800 
 38 H        3.2950     1.7760     1.8880 H     1 <1>   0.0800 
 39 H       -3.9060     1.4610    -0.9330 H     1 <1>   0.0800 
 40 H       -2.7640     1.8360     0.3230 H     1 <1>   0.0800 
 41 H       -1.8670    -0.2010     1.8020 H     1 <1>   0.0800 
 42 H       -2.4840    -1.7830     1.4290 H     1 <1>   0.0800 
 43 H       -3.8970    -0.8950    -0.3370 H     1 <1>   0.0800 
 44 H       -4.1990     0.0270     1.1120 H     1 <1>   0.0800 
 45 H        7.5070    -1.9310     1.2730 H     1 <1>   0.1500 
 46 H        7.0380     2.1420     0.1770 H     1 <1>   0.1500 
 47 H        9.0290     2.0010    -1.2290 H     1 <1>   0.1500 
 48 H        9.2440    -3.2390     0.4730 H     1 <1>   0.0800 
 49 H       10.7280    -2.3740     0.1870 H     1 <1>   0.0800 
 50 H        9.7230    -2.8630    -1.1600 H     1 <1>   0.0800 
 51 H       10.5180    -0.8540    -2.4430 H     1 <1>   0.0800 
 52 H       11.5100    -0.3610    -1.0870 H     1 <1>   0.0800 
 53 H       10.8230     0.8360    -2.1500 H     1 <1>   0.0800 
@<TRIPOS>BOND
  1   1   2  2   
  2   1   3  2   
  3   1   4  am  
  4   1   5  am  
  5   4   6  1   
  6   4   7  1   
  7   5   8  1   
  8   5   9  1   
  9   6  10  1   
 10   6  27  1   
 11   6  28  1   
 12   7  11  1   
 13   7  29  1   
 14   7  30  1   
 15   8  12  1   
 16   8  31  1   
 17   8  32  1   
 18   9  13  1   
 19   9  33  1   
 20   9  34  1   
 21  10  14  1   
 22  10  35  1   
 23  10  36  1   
 24  11  14  1   
 25  11  37  1   
 26  11  38  1   
 27  12  15  1   
 28  12  39  1   
 29  12  40  1   
 30  13  15  1   
 31  13  41  1   
 32  13  42  1   
 33  14  16  am  
 34  15  43  1   
 35  15  44  1   
 36  16  17  2   
 37  16  18  2   
 38  16  19  1   
 39  19  20  ar  
 40  19  21  ar  
 41  20  22  ar  
 42  20  45  1   
 43  21  23  ar  
 44  21  46  1   
 45  22  24  ar  
 46  22  25  1   
 47  23  24  ar  
 48  23  47  1   
 49  24  26  1   
 50  25  48  1   
 51  25  49  1   
 52  25  50  1   
 53  26  51  1   
 54  26  52  1   
 55  26  53  1   
@<TRIPOS>SUBSTRUCTURE
  1 ****  10 GROUP 4 **** **** 0

# MOE 2024.06 (io_trps.svl 2023.06)
