@<TRIPOS>MOLECULE
Cyclohexanecarboxylic acid (3-m-tolyl-[1,2,4]oxadiazol-5-ylmethyl)-amide
43 45 1 0 0 
SMALL
USER_CHARGES


@<TRIPOS>ATOM
  1 O       -1.2070    -0.1150    -0.5640 O.2   1 <1>  -0.5700 
  2 C       -2.0360    -0.7300     0.0570 C.2   1 <1>   0.5690 
  3 N       -1.6260    -1.7910     0.7940 N.am  1 <1>  -0.7300 
  4 C       -3.5080    -0.3040    -0.0180 C.3   1 <1>  -0.0190 
  5 C       -2.4310    -2.7410     1.6090 C.3   1 <1>   0.3200 
  6 C       -4.1390    -0.7420    -1.3540 C.3   1 <1>  -0.1600 
  7 C       -3.6870     1.2150     0.1780 C.3   1 <1>  -0.1600 
  8 C       -3.4250    -3.5350     0.7720 C.2   1 <1>   0.2980 
  9 C       -5.6230    -0.3570    -1.4210 C.3   1 <1>  -0.1600 
 10 C       -5.1690     1.6140     0.1100 C.3   1 <1>  -0.1600 
 11 O       -2.9680    -4.3570    -0.1350 O.3   1 <1>  -0.0190 
 12 N       -4.6900    -3.4720     0.8620 N.2   1 <1>  -0.5650 
 13 C       -5.8110     1.1510    -1.2050 C.3   1 <1>  -0.1600 
 14 N       -4.0350    -4.8500    -0.6790 N.2   1 <1>  -0.4100 
 15 C       -5.0570    -4.3240    -0.1010 C.2   1 <1>   0.4620 
 16 C       -6.4480    -4.5810    -0.4330 C.ar  1 <1>   0.0540 
 17 C       -7.4890    -3.8520     0.1480 C.ar  1 <1>  -0.1500 
 18 C       -6.8010    -5.5660    -1.3570 C.ar  1 <1>  -0.1500 
 19 C       -8.8150    -4.0860    -0.1720 C.ar  1 <1>  -0.1440 
 20 C       -8.1220    -5.8120    -1.6820 C.ar  1 <1>  -0.1500 
 21 C       -9.1300    -5.0730    -1.0900 C.ar  1 <1>  -0.1500 
 22 C       -9.9200    -3.2740     0.4800 C.3   1 <1>  -0.0970 
 23 H       -0.6290    -2.0010     0.7140 H     1 <1>   0.3700 
 24 H       -4.0470    -0.7810     0.7770 H     1 <1>   0.0800 
 25 H       -2.9680    -2.1920     2.3630 H     1 <1>   0.0800 
 26 H       -1.7700    -3.4280     2.1070 H     1 <1>   0.0800 
 27 H       -4.0410    -1.8060    -1.4750 H     1 <1>   0.0800 
 28 H       -3.6100    -0.2730    -2.1660 H     1 <1>   0.0800 
 29 H       -3.1420     1.7400    -0.5890 H     1 <1>   0.0800 
 30 H       -3.2780     1.5070     1.1290 H     1 <1>   0.0800 
 31 H       -6.1680    -0.8990    -0.6670 H     1 <1>   0.0800 
 32 H       -6.0240    -0.6370    -2.3800 H     1 <1>   0.0800 
 33 H       -5.2570     2.6840     0.1950 H     1 <1>   0.0800 
 34 H       -5.6970     1.1730     0.9380 H     1 <1>   0.0800 
 35 H       -6.8610     1.3860    -1.1970 H     1 <1>   0.0800 
 36 H       -5.3600     1.6840    -2.0250 H     1 <1>   0.0800 
 37 H       -7.2500    -3.0860     0.8640 H     1 <1>   0.1500 
 38 H       -6.0290    -6.1500    -1.8280 H     1 <1>   0.1500 
 39 H       -8.3680    -6.5790    -2.3960 H     1 <1>   0.1500 
 40 H      -10.1560    -5.2690    -1.3460 H     1 <1>   0.1500 
 41 H      -10.7120    -3.0890    -0.2240 H     1 <1>   0.0800 
 42 H       -9.5430    -2.3260     0.8220 H     1 <1>   0.0800 
 43 H      -10.3190    -3.8120     1.3200 H     1 <1>   0.0800 
@<TRIPOS>BOND
  1   1   2  2   
  2   2   3  am  
  3   2   4  1   
  4   3   5  1   
  5   3  23  1   
  6   4   6  1   
  7   4   7  1   
  8   4  24  1   
  9   5   8  1   
 10   5  25  1   
 11   5  26  1   
 12   6   9  1   
 13   6  27  1   
 14   6  28  1   
 15   7  10  1   
 16   7  29  1   
 17   7  30  1   
 18   8  11  1   
 19   8  12  2   
 20   9  13  1   
 21   9  31  1   
 22   9  32  1   
 23  10  13  1   
 24  10  33  1   
 25  10  34  1   
 26  11  14  1   
 27  12  15  1   
 28  13  35  1   
 29  13  36  1   
 30  14  15  2   
 31  15  16  1   
 32  16  17  ar  
 33  16  18  ar  
 34  17  19  ar  
 35  17  37  1   
 36  18  20  ar  
 37  18  38  1   
 38  19  21  ar  
 39  19  22  1   
 40  20  21  ar  
 41  20  39  1   
 42  21  40  1   
 43  22  41  1   
 44  22  42  1   
 45  22  43  1   
@<TRIPOS>SUBSTRUCTURE
  1 ****  12 GROUP 4 **** **** 0

# MOE 2024.06 (io_trps.svl 2023.06)
