@<TRIPOS>MOLECULE
8-Dimethylamino-7-(2-hydroxy-3-p-tolyloxy-propyl)-3-methyl-3,7-dihydro-purine-2,
51 53 1 0 0 
SMALL
USER_CHARGES


@<TRIPOS>ATOM
  1 O        1.4850     2.3520    -2.1300 O.2   1 <1>  -0.5750 
  2 C        2.6260     2.2240    -1.7490 C.2   1 <1>   0.6860 
  3 N        3.1120     1.0230    -1.2550 N.am  1 <1>  -0.4410 
  4 N        3.4570     3.3020    -1.8140 N.am  1 <1>  -0.4950 
  5 C        4.4320     0.9930    -0.8260 C.2   1 <1>   0.4210 
  6 C        2.2370    -0.1820    -1.1620 C.3   1 <1>   0.0520 
  7 C        4.7620     3.2840    -1.4130 C.2   1 <1>   0.6990 
  8 N        5.1010    -0.0600    -0.2940 N.pl3 1 <1>  -0.7040 
  9 C        5.2690     2.0520    -0.8740 C.2   1 <1>   0.2710 
 10 O        5.4210     4.2970    -1.5510 O.2   1 <1>  -0.5750 
 11 C        6.3440     0.3230     0.0110 C.cat 1 <1>   1.0690 
 12 N        6.4980     1.6140    -0.3310 N.pl3 1 <1>  -0.7670 
 13 N        7.2390    -0.5320     0.5790 N.pl3 1 <1>  -0.5960 
 14 C        7.6140     2.5930    -0.1240 C.3   1 <1>   0.3480 
 15 C        6.9810    -2.0000     0.7350 C.3   1 <1>   0.0800 
 16 C        8.5780    -0.1520     1.1130 C.3   1 <1>   0.0800 
 17 C        7.4640     3.3810     1.2040 C.3   1 <1>   0.1930 
 18 O        6.1800     3.9050     1.3190 O.3   1 <1>  -0.6840 
 19 C        8.4680     4.5350     1.2920 C.3   1 <1>   0.1130 
 20 O        8.2380     5.4090     0.2100 O.3   1 <1>  -0.3680 
 21 C        9.0700     6.4470    -0.0450 C.ar  1 <1>   0.0750 
 22 C       10.1110     6.8310     0.7950 C.ar  1 <1>  -0.1570 
 23 C        8.8510     7.1460    -1.2210 C.ar  1 <1>  -0.1570 
 24 C       10.9210     7.8970     0.4480 C.ar  1 <1>  -0.1570 
 25 C        9.6640     8.2110    -1.5640 C.ar  1 <1>  -0.1570 
 26 C       10.7030     8.5930    -0.7310 C.ar  1 <1>  -0.1510 
 27 C       11.5950     9.7610    -1.1090 C.3   1 <1>  -0.1040 
 28 H        3.0740     4.1690    -2.1850 H     1 <1>   0.3640 
 29 H        1.3030    -0.0160    -1.6710 H     1 <1>   0.0720 
 30 H        2.0280    -0.4010    -0.1300 H     1 <1>   0.0720 
 31 H        2.7230    -1.0260    -1.6190 H     1 <1>   0.0720 
 32 H        4.7210    -0.9790    -0.1030 H     1 <1>   0.4450 
 33 H        7.6300     3.2860    -0.9480 H     1 <1>   0.0720 
 34 H        8.5640     2.0940    -0.1430 H     1 <1>   0.0720 
 35 H        6.1580    -2.3310     0.1270 H     1 <1>   0.0720 
 36 H        6.7680    -2.2250     1.7670 H     1 <1>   0.0720 
 37 H        7.8530    -2.5580     0.4350 H     1 <1>   0.0720 
 38 H        8.5100     0.7430     1.7030 H     1 <1>   0.0720 
 39 H        9.2710    -0.0060     0.3010 H     1 <1>   0.0720 
 40 H        8.9660    -0.9300     1.7510 H     1 <1>   0.0720 
 41 H        7.6100     2.7200     2.0390 H     1 <1>   0.0720 
 42 H        6.1330     4.7340     0.7850 H     1 <1>   0.3940 
 43 H        9.4760     4.1670     1.2230 H     1 <1>   0.0720 
 44 H        8.3410     5.0810     2.2110 H     1 <1>   0.0720 
 45 H       10.3050     6.3210     1.7190 H     1 <1>   0.1430 
 46 H        8.0430     6.8520    -1.8660 H     1 <1>   0.1430 
 47 H       11.7250     8.1870     1.1010 H     1 <1>   0.1430 
 48 H        9.4830     8.7430    -2.4810 H     1 <1>   0.1430 
 49 H       11.0390    10.4900    -1.6700 H     1 <1>   0.0720 
 50 H       12.4160     9.4120    -1.7080 H     1 <1>   0.0720 
 51 H       11.9850    10.2380    -0.2280 H     1 <1>   0.0720 
@<TRIPOS>BOND
  1   1   2  2   
  2   2   3  am  
  3   2   4  am  
  4   3   5  1   
  5   3   6  1   
  6   4   7  am  
  7   4  28  1   
  8   5   8  1   
  9   5   9  2   
 10   6  29  1   
 11   6  30  1   
 12   6  31  1   
 13   7   9  1   
 14   7  10  2   
 15   8  11  ar  
 16   8  32  1   
 17   9  12  1   
 18  11  12  ar  
 19  11  13  ar  
 20  12  14  1   
 21  13  15  1   
 22  13  16  1   
 23  14  17  1   
 24  14  33  1   
 25  14  34  1   
 26  15  35  1   
 27  15  36  1   
 28  15  37  1   
 29  16  38  1   
 30  16  39  1   
 31  16  40  1   
 32  17  18  1   
 33  17  19  1   
 34  17  41  1   
 35  18  42  1   
 36  19  20  1   
 37  19  43  1   
 38  19  44  1   
 39  20  21  1   
 40  21  22  ar  
 41  21  23  ar  
 42  22  24  ar  
 43  22  45  1   
 44  23  25  ar  
 45  23  46  1   
 46  24  26  ar  
 47  24  47  1   
 48  25  26  ar  
 49  25  48  1   
 50  26  27  1   
 51  27  49  1   
 52  27  50  1   
 53  27  51  1   
@<TRIPOS>SUBSTRUCTURE
  1 ****  14 GROUP 4 **** **** 0

# MOE 2024.06 (io_trps.svl 2023.06)
