@<TRIPOS>MOLECULE
N-(4-Fluoro-phenyl)-2-(4-trifluoromethyl-5,6,7,8-tetrahydro-quinazolin-2-ylsulfa
41 43 1 0 0 
SMALL
USER_CHARGES


@<TRIPOS>ATOM
  1 S        0.0550     0.2690     0.5820 S.3   1 <1>  -0.3320 
  2 C       -1.1480     1.5230     0.1780 C.ar  1 <1>   0.7220 
  3 C        1.4700     0.4970    -0.6030 C.3   1 <1>   0.1310 
  4 N       -0.7990     2.3890    -0.7550 N.ar  1 <1>  -0.6200 
  5 N       -2.2650     1.4500     0.8610 N.ar  1 <1>  -0.6200 
  6 C        2.4500     1.5420    -0.0940 C.2   1 <1>   0.5690 
  7 C       -1.7150     3.3070    -1.0640 C.ar  1 <1>   0.1660 
  8 C       -3.1620     2.3580     0.5650 C.ar  1 <1>   0.1660 
  9 O        3.5850     1.1970     0.1290 O.2   1 <1>  -0.5700 
 10 N        2.0100     2.8280     0.0540 N.am  1 <1>  -0.5470 
 11 C       -2.9400     3.3290    -0.3990 C.ar  1 <1>  -0.1440 
 12 C       -1.3730     4.3440    -2.1760 C.3   1 <1>   1.1640 
 13 C       -4.4520     2.2670     1.3690 C.3   1 <1>  -0.0170 
 14 C        2.6660     3.9830     0.5030 C.ar  1 <1>   0.1170 
 15 C       -4.0290     4.3670    -0.7110 C.3   1 <1>  -0.0170 
 16 F       -2.3000     4.4180    -3.1260 F     1 <1>  -0.3400 
 17 F       -0.2300     4.0840    -2.8070 F     1 <1>  -0.3400 
 18 F       -1.2370     5.5750    -1.6910 F     1 <1>  -0.3400 
 19 C       -5.5990     3.0890     0.7750 C.3   1 <1>  -0.1600 
 20 C        2.1940     5.2240     0.0800 C.ar  1 <1>  -0.1500 
 21 C        3.7580     3.9360     1.3690 C.ar  1 <1>  -0.1500 
 22 C       -5.0980     4.4770     0.3810 C.3   1 <1>  -0.1600 
 23 C        2.7950     6.3960     0.5050 C.ar  1 <1>  -0.1500 
 24 C        4.3710     5.0990     1.8020 C.ar  1 <1>  -0.1500 
 25 C        3.8760     6.3110     1.3610 C.ar  1 <1>   0.1900 
 26 F        4.4490     7.4140     1.7670 F     1 <1>  -0.1900 
 27 H        1.0690     0.7710    -1.5610 H     1 <1>   0.0800 
 28 H        1.9610    -0.4550    -0.6790 H     1 <1>   0.0800 
 29 H        1.0350     2.9650    -0.2260 H     1 <1>   0.3700 
 30 H       -4.2450     2.6120     2.3670 H     1 <1>   0.0800 
 31 H       -4.7560     1.2370     1.4400 H     1 <1>   0.0800 
 32 H       -4.5120     4.0890    -1.6330 H     1 <1>   0.0800 
 33 H       -3.6030     5.3460    -0.8440 H     1 <1>   0.0800 
 34 H       -6.3940     3.1720     1.4970 H     1 <1>   0.0800 
 35 H       -5.9900     2.5860    -0.0930 H     1 <1>   0.0800 
 36 H        1.3560     5.2760    -0.5900 H     1 <1>   0.1500 
 37 H        4.1310     2.9870     1.7100 H     1 <1>   0.1500 
 38 H       -5.9190     5.0740     0.0230 H     1 <1>   0.0800 
 39 H       -4.6830     4.9690     1.2460 H     1 <1>   0.0800 
 40 H        2.4390     7.3580     0.1820 H     1 <1>   0.1500 
 41 H        5.2140     5.0690     2.4680 H     1 <1>   0.1500 
@<TRIPOS>BOND
  1   1   2  1   
  2   1   3  1   
  3   2   4  ar  
  4   2   5  ar  
  5   3   6  1   
  6   3  27  1   
  7   3  28  1   
  8   4   7  ar  
  9   5   8  ar  
 10   6   9  2   
 11   6  10  am  
 12   7  11  ar  
 13   7  12  1   
 14   8  11  ar  
 15   8  13  1   
 16  10  14  1   
 17  10  29  1   
 18  11  15  1   
 19  12  16  1   
 20  12  17  1   
 21  12  18  1   
 22  13  19  1   
 23  13  30  1   
 24  13  31  1   
 25  14  20  ar  
 26  14  21  ar  
 27  15  22  1   
 28  15  32  1   
 29  15  33  1   
 30  19  22  1   
 31  19  34  1   
 32  19  35  1   
 33  20  23  ar  
 34  20  36  1   
 35  21  24  ar  
 36  21  37  1   
 37  22  38  1   
 38  22  39  1   
 39  23  25  ar  
 40  23  40  1   
 41  24  25  ar  
 42  24  41  1   
 43  25  26  1   
@<TRIPOS>SUBSTRUCTURE
  1 ****   4 GROUP 4 **** **** 0

# MOE 2024.06 (io_trps.svl 2023.06)
