@<TRIPOS>MOLECULE
2-(Methanesulfonyl-methyl-amino)-N-(tetrahydro-furan-2-ylmethyl)-benzamide
41 42 1 0 0 
SMALL
USER_CHARGES


@<TRIPOS>ATOM
  1 S        0.5570     0.1830    -0.9060 S.o2  1 <1>   1.3330 
  2 O       -0.6490     0.9570    -1.0730 O.2   1 <1>  -0.6500 
  3 O        0.4860    -1.2400    -0.6740 O.2   1 <1>  -0.6500 
  4 N        1.4610     0.8660     0.4110 N.am  1 <1>  -0.6930 
  5 C        1.6180     0.4690    -2.3050 C.3   1 <1>  -0.1350 
  6 C        1.5300     2.2420     0.6250 C.ar  1 <1>   0.1990 
  7 C        2.3550    -0.0570     1.1540 C.3   1 <1>   0.1160 
  8 C        2.7170     2.9870     0.4770 C.ar  1 <1>   0.0860 
  9 C        0.3700     2.9010     1.0220 C.ar  1 <1>  -0.1500 
 10 C        3.9630     2.3860     0.0670 C.2   1 <1>   0.5440 
 11 C        2.6810     4.3590     0.7390 C.ar  1 <1>  -0.1500 
 12 C        0.3560     4.2570     1.2760 C.ar  1 <1>  -0.1500 
 13 O        4.0590     1.7660    -0.9740 O.2   1 <1>  -0.5700 
 14 N        5.0760     2.5210     0.8490 N.am  1 <1>  -0.7300 
 15 C        1.5190     4.9910     1.1340 C.ar  1 <1>  -0.1500 
 16 C        6.4150     1.9430     0.5390 C.3   1 <1>   0.1400 
 17 C        7.0940     2.6590    -0.6380 C.3   1 <1>   0.2000 
 18 O        8.4120     2.2310    -0.7340 O.3   1 <1>  -0.5600 
 19 C        7.2110     4.1720    -0.4970 C.3   1 <1>  -0.1600 
 20 C        9.1540     3.1460    -1.4730 C.3   1 <1>   0.1200 
 21 C        8.4610     4.4960    -1.3000 C.3   1 <1>  -0.1600 
 22 H        1.1630     0.0880    -3.1970 H     1 <1>   0.0800 
 23 H        2.5610    -0.0210    -2.1620 H     1 <1>   0.0800 
 24 H        1.7940     1.5200    -2.4270 H     1 <1>   0.0800 
 25 H        1.7790    -0.8750     1.5530 H     1 <1>   0.0800 
 26 H        2.8340     0.4570     1.9680 H     1 <1>   0.0800 
 27 H        3.1070    -0.4490     0.4900 H     1 <1>   0.0800 
 28 H       -0.5370     2.3320     1.1330 H     1 <1>   0.1500 
 29 H        3.5800     4.9380     0.6210 H     1 <1>   0.1500 
 30 H       -0.5570     4.7410     1.5790 H     1 <1>   0.1500 
 31 H        5.0110     3.0400     1.7270 H     1 <1>   0.3700 
 32 H        1.5120     6.0510     1.3280 H     1 <1>   0.1500 
 33 H        6.2990     0.9030     0.2880 H     1 <1>   0.0800 
 34 H        7.0410     2.0210     1.4090 H     1 <1>   0.0800 
 35 H        6.6030     2.4020    -1.5620 H     1 <1>   0.0800 
 36 H        7.3580     4.4320     0.5370 H     1 <1>   0.0800 
 37 H        6.3360     4.6710    -0.8720 H     1 <1>   0.0800 
 38 H        9.1450     2.8310    -2.5030 H     1 <1>   0.0800 
 39 H       10.1630     3.1530    -1.0980 H     1 <1>   0.0800 
 40 H        9.0950     5.1930    -0.7810 H     1 <1>   0.0800 
 41 H        8.2100     4.9000    -2.2650 H     1 <1>   0.0800 
@<TRIPOS>BOND
  1   1   2  2   
  2   1   3  2   
  3   1   4  am  
  4   1   5  1   
  5   4   6  1   
  6   4   7  1   
  7   5  22  1   
  8   5  23  1   
  9   5  24  1   
 10   6   8  ar  
 11   6   9  ar  
 12   7  25  1   
 13   7  26  1   
 14   7  27  1   
 15   8  10  1   
 16   8  11  ar  
 17   9  12  ar  
 18   9  28  1   
 19  10  13  2   
 20  10  14  am  
 21  11  15  ar  
 22  11  29  1   
 23  12  15  ar  
 24  12  30  1   
 25  14  16  1   
 26  14  31  1   
 27  15  32  1   
 28  16  17  1   
 29  16  33  1   
 30  16  34  1   
 31  17  18  1   
 32  17  19  1   
 33  17  35  1   
 34  18  20  1   
 35  19  21  1   
 36  19  36  1   
 37  19  37  1   
 38  20  21  1   
 39  20  38  1   
 40  20  39  1   
 41  21  40  1   
 42  21  41  1   
@<TRIPOS>SUBSTRUCTURE
  1 ****  10 GROUP 4 **** **** 0

# MOE 2024.06 (io_trps.svl 2023.06)
