@<TRIPOS>MOLECULE
3-(4-Fluoro-phenoxymethyl)-piperidine
32 33 1 0 0 
SMALL
USER_CHARGES


@<TRIPOS>ATOM
  1 F       -0.3410    -0.5820    -0.4560 F     1 <1>  -0.1900 
  2 C       -1.5520    -1.0390    -0.2740 C.ar  1 <1>   0.1900 
  3 C       -1.7140    -2.3060     0.2540 C.ar  1 <1>  -0.1500 
  4 C       -2.6250    -0.2380    -0.6150 C.ar  1 <1>  -0.1500 
  5 C       -3.0000    -2.7830     0.4440 C.ar  1 <1>  -0.1500 
  6 C       -3.9080    -0.7230    -0.4220 C.ar  1 <1>  -0.1500 
  7 C       -4.0980    -2.0010     0.1080 C.ar  1 <1>   0.0820 
  8 O       -5.3210    -2.5500     0.3240 O.3   1 <1>  -0.3630 
  9 C       -6.5030    -1.8380     0.0360 C.3   1 <1>   0.1200 
 10 C       -7.6940    -2.7370     0.3870 C.3   1 <1>  -0.0800 
 11 C       -7.5070    -4.1300    -0.2330 C.3   1 <1>   0.3430 
 12 C       -9.0150    -2.0960    -0.0750 C.3   1 <1>  -0.1600 
 13 N       -8.6890    -4.9930     0.0600 N.4   1 <1>  -0.9060 
 14 C      -10.1970    -3.0450     0.1720 C.3   1 <1>  -0.1600 
 15 C       -9.9650    -4.4230    -0.4520 C.3   1 <1>   0.3430 
 16 H       -0.8530    -2.8980     0.5090 H     1 <1>   0.1500 
 17 H       -2.4530     0.7420    -1.0220 H     1 <1>   0.1500 
 18 H       -3.1530    -3.7640     0.8550 H     1 <1>   0.1500 
 19 H       -4.7350    -0.0920    -0.6890 H     1 <1>   0.1500 
 20 H       -6.4990    -1.5910    -1.0120 H     1 <1>   0.0800 
 21 H       -6.5140    -0.9380     0.6280 H     1 <1>   0.0800 
 22 H       -7.7130    -2.8380     1.4590 H     1 <1>   0.0800 
 23 H       -6.6120    -4.5810     0.1660 H     1 <1>   0.0800 
 24 H       -7.3830    -4.0310    -1.3000 H     1 <1>   0.0800 
 25 H       -8.9620    -1.8640    -1.1260 H     1 <1>   0.0800 
 26 H       -9.1790    -1.1710     0.4550 H     1 <1>   0.0800 
 27 H       -8.7630    -5.1100     1.0780 H     1 <1>   0.4500 
 28 H       -8.5390    -5.9280    -0.3380 H     1 <1>   0.4500 
 29 H      -11.0900    -2.6160    -0.2500 H     1 <1>   0.0800 
 30 H      -10.3670    -3.1550     1.2300 H     1 <1>   0.0800 
 31 H      -10.7880    -5.0760    -0.2090 H     1 <1>   0.0800 
 32 H       -9.9150    -4.3260    -1.5260 H     1 <1>   0.0800 
@<TRIPOS>BOND
  1   1   2  1   
  2   2   3  ar  
  3   2   4  ar  
  4   3   5  ar  
  5   3  16  1   
  6   4   6  ar  
  7   4  17  1   
  8   5   7  ar  
  9   5  18  1   
 10   6   7  ar  
 11   6  19  1   
 12   7   8  1   
 13   8   9  1   
 14   9  10  1   
 15   9  20  1   
 16   9  21  1   
 17  10  11  1   
 18  10  12  1   
 19  10  22  1   
 20  11  13  1   
 21  11  23  1   
 22  11  24  1   
 23  12  14  1   
 24  12  25  1   
 25  12  26  1   
 26  13  15  1   
 27  13  27  1   
 28  13  28  1   
 29  14  15  1   
 30  14  29  1   
 31  14  30  1   
 32  15  31  1   
 33  15  32  1   
@<TRIPOS>SUBSTRUCTURE
  1 ****   8 GROUP 4 **** **** 0

# MOE 2024.06 (io_trps.svl 2023.06)
