@<TRIPOS>MOLECULE
N-[2-(4-Acetyl-piperazin-1-ylmethyl)-1-methyl-1H-benzoimidazol-5-yl]-propionamid
50 52 1 0 0 
SMALL
USER_CHARGES


@<TRIPOS>ATOM
  1 O        0.0910     0.2960    -1.3470 O.2   1 <1>  -0.5700 
  2 C        0.5080     1.4220    -1.2330 C.2   1 <1>   0.5690 
  3 N        1.7370     1.7400    -0.7290 N.am  1 <1>  -0.5470 
  4 C       -0.3770     2.5690    -1.6900 C.3   1 <1>  -0.0990 
  5 C        2.7810     0.9390    -0.2300 C.ar  1 <1>   0.1170 
  6 C       -0.8720     3.4450    -0.5270 C.3   1 <1>  -0.2400 
  7 C        4.0500     1.4800    -0.1550 C.ar  1 <1>  -0.1500 
  8 C        2.5790    -0.3830     0.2100 C.ar  1 <1>  -0.1500 
  9 C        5.1030     0.7190     0.3410 C.ar  1 <1>   0.2270 
 10 C        3.6160    -1.1450     0.6990 C.ar  1 <1>  -0.1500 
 11 N        6.4090     1.0620     0.4940 N.2   1 <1>  -0.5650 
 12 C        4.8900    -0.5770     0.7590 C.ar  1 <1>  -0.1520 
 13 C        6.9700     0.0030     0.9740 C.2   1 <1>   0.0060 
 14 N        6.1030    -1.0350     1.1730 N.pl3 1 <1>   0.0480 
 15 C        8.4600    -0.0690     1.3100 C.3   1 <1>   0.2900 
 16 C        6.3330    -2.3830     1.7300 C.3   1 <1>   0.0160 
 17 N        9.3110    -0.4930     0.1750 N.3   1 <1>  -0.8100 
 18 C       10.7370    -0.4980     0.5580 C.3   1 <1>   0.1100 
 19 C        8.9100    -1.7820    -0.4310 C.3   1 <1>   0.1100 
 20 C       11.6510    -0.8520    -0.6290 C.3   1 <1>   0.1400 
 21 C        9.7970    -2.1520    -1.6300 C.3   1 <1>   0.1400 
 22 N       11.2360    -2.1510    -1.2360 N.am  1 <1>  -0.6600 
 23 C       12.0140    -3.2710    -1.3580 C.2   1 <1>   0.5690 
 24 O       11.5720    -4.3210    -1.7560 O.2   1 <1>  -0.5700 
 25 C       13.4780    -3.2320    -0.9860 C.3   1 <1>  -0.1790 
 26 H        1.9540     2.7340    -0.7460 H     1 <1>   0.3700 
 27 H       -1.2270     2.1570    -2.2060 H     1 <1>   0.0800 
 28 H        0.1690     3.1690    -2.3940 H     1 <1>   0.0800 
 29 H       -1.4250     2.8440     0.1750 H     1 <1>   0.0800 
 30 H       -1.5180     4.2200    -0.8980 H     1 <1>   0.0800 
 31 H       -0.0460     3.9020    -0.0120 H     1 <1>   0.0800 
 32 H        4.2620     2.4810    -0.4750 H     1 <1>   0.1500 
 33 H        1.5930    -0.8080     0.1650 H     1 <1>   0.1500 
 34 H        3.4510    -2.1550     1.0290 H     1 <1>   0.1500 
 35 H        8.6160    -0.7210     2.1490 H     1 <1>   0.0800 
 36 H        8.7670     0.9190     1.6080 H     1 <1>   0.0800 
 37 H        5.6750    -2.5340     2.5660 H     1 <1>   0.0800 
 38 H        7.3500    -2.4880     2.0560 H     1 <1>   0.0800 
 39 H        6.1230    -3.1160     0.9730 H     1 <1>   0.0800 
 40 H       10.9010    -1.2110     1.3480 H     1 <1>   0.0800 
 41 H       11.0100     0.4770     0.9210 H     1 <1>   0.0800 
 42 H        7.8960    -1.7150    -0.7830 H     1 <1>   0.0800 
 43 H        8.9710    -2.5690     0.3000 H     1 <1>   0.0800 
 44 H       12.6700    -0.8870    -0.2920 H     1 <1>   0.0800 
 45 H       11.5740    -0.0780    -1.3730 H     1 <1>   0.0800 
 46 H        9.6450    -1.4330    -2.4160 H     1 <1>   0.0800 
 47 H        9.5050    -3.1170    -2.0050 H     1 <1>   0.0800 
 48 H       13.5810    -3.0590     0.0680 H     1 <1>   0.0800 
 49 H       13.9740    -2.4550    -1.5360 H     1 <1>   0.0800 
 50 H       13.9380    -4.1720    -1.2290 H     1 <1>   0.0800 
@<TRIPOS>BOND
  1   1   2  2   
  2   2   3  am  
  3   2   4  1   
  4   3   5  1   
  5   3  26  1   
  6   4   6  1   
  7   4  27  1   
  8   4  28  1   
  9   5   7  ar  
 10   5   8  ar  
 11   6  29  1   
 12   6  30  1   
 13   6  31  1   
 14   7   9  ar  
 15   7  32  1   
 16   8  10  ar  
 17   8  33  1   
 18   9  11  1   
 19   9  12  ar  
 20  10  12  ar  
 21  10  34  1   
 22  11  13  2   
 23  12  14  1   
 24  13  14  1   
 25  13  15  1   
 26  14  16  1   
 27  15  17  1   
 28  15  35  1   
 29  15  36  1   
 30  16  37  1   
 31  16  38  1   
 32  16  39  1   
 33  17  18  1   
 34  17  19  1   
 35  18  20  1   
 36  18  40  1   
 37  18  41  1   
 38  19  21  1   
 39  19  42  1   
 40  19  43  1   
 41  20  22  1   
 42  20  44  1   
 43  20  45  1   
 44  21  22  1   
 45  21  46  1   
 46  21  47  1   
 47  22  23  am  
 48  23  24  2   
 49  23  25  1   
 50  25  48  1   
 51  25  49  1   
 52  25  50  1   
@<TRIPOS>SUBSTRUCTURE
  1 ****  13 GROUP 4 **** **** 0

# MOE 2024.06 (io_trps.svl 2023.06)
