@<TRIPOS>MOLECULE
2-[(Z)-2-(3-Ethoxy-4-isopropoxy-phenyl)-vinyl]-6-hydroxy-5-nitro-3H-pyrimidin-4-
44 45 1 0 0 
SMALL
USER_CHARGES


@<TRIPOS>ATOM
  1 O        2.5580    -1.1080     2.0240 O.2   1 <1>  -0.5200 
  2 N        2.1040    -1.2520     0.8580 N.pl3 1 <1>   0.8360 
  3 O        1.8260    -0.2050     0.2160 O.2   1 <1>  -0.5200 
  4 C        1.6880    -2.4830     0.4110 C.2   1 <1>   0.2190 
  5 C        2.4900    -3.3460    -0.3500 C.2   1 <1>   0.0210 
  6 C        0.4020    -2.9140     0.7170 C.2   1 <1>   0.6160 
  7 O        3.6410    -3.0570    -0.6630 O.3   1 <1>  -0.8500 
  8 N        2.0240    -4.5620    -0.7910 N.2   1 <1>  -0.6210 
  9 O       -0.4530    -2.2890     1.3540 O.2   1 <1>  -0.5700 
 10 N        0.0150    -4.1450     0.2720 N.am  1 <1>  -0.4900 
 11 C        0.8260    -4.9350    -0.4970 C.2   1 <1>   0.4960 
 12 C        0.3330    -6.1990    -0.9660 C.2   1 <1>  -0.1360 
 13 C       -0.9150    -6.7320    -0.9680 C.2   1 <1>  -0.1780 
 14 C       -2.1440    -6.1360    -0.5280 C.ar  1 <1>   0.0280 
 15 C       -2.5630    -4.9010    -1.0170 C.ar  1 <1>  -0.1500 
 16 C       -2.9450    -6.7710     0.4180 C.ar  1 <1>  -0.1500 
 17 C       -3.7090    -4.2930    -0.5440 C.ar  1 <1>   0.0830 
 18 C       -4.1110    -6.1860     0.8780 C.ar  1 <1>  -0.1500 
 19 O       -4.0070    -3.0590    -1.0110 O.3   1 <1>  -0.3630 
 20 C       -4.5070    -4.9480     0.4000 C.ar  1 <1>   0.0830 
 21 C       -3.7680    -1.9970    -0.1160 C.3   1 <1>   0.1200 
 22 O       -5.6520    -4.4190     0.8900 O.3   1 <1>  -0.3630 
 23 C       -4.2330    -0.7050    -0.7790 C.3   1 <1>  -0.2400 
 24 C       -6.7140    -4.1690    -0.0050 C.3   1 <1>   0.2000 
 25 C       -7.5850    -3.0810     0.6150 C.3   1 <1>  -0.2400 
 26 C       -7.4930    -5.4690    -0.2040 C.3   1 <1>  -0.2400 
 27 H       -0.9320    -4.4410     0.4870 H     1 <1>   0.3700 
 28 H        1.1330    -6.7930    -1.3730 H     1 <1>   0.1500 
 29 H       -1.0400    -7.7330    -1.3430 H     1 <1>   0.1500 
 30 H       -1.9780    -4.3970    -1.7670 H     1 <1>   0.1500 
 31 H       -2.6460    -7.7310     0.8020 H     1 <1>   0.1500 
 32 H       -4.7230    -6.6820     1.6110 H     1 <1>   0.1500 
 33 H       -4.3130    -2.1780     0.7950 H     1 <1>   0.0800 
 34 H       -2.7130    -1.9610     0.0960 H     1 <1>   0.0800 
 35 H       -5.2850    -0.7570    -0.9940 H     1 <1>   0.0800 
 36 H       -3.6850    -0.5410    -1.6890 H     1 <1>   0.0800 
 37 H       -4.0550     0.1240    -0.1180 H     1 <1>   0.0800 
 38 H       -6.3180    -3.8260    -0.9450 H     1 <1>   0.0800 
 39 H       -7.9700    -3.4050     1.5660 H     1 <1>   0.0800 
 40 H       -8.4110    -2.8570    -0.0340 H     1 <1>   0.0800 
 41 H       -7.0080    -2.1840     0.7500 H     1 <1>   0.0800 
 42 H       -7.8600    -5.8340     0.7380 H     1 <1>   0.0800 
 43 H       -6.8610    -6.2130    -0.6550 H     1 <1>   0.0800 
 44 H       -8.3280    -5.2980    -0.8580 H     1 <1>   0.0800 
@<TRIPOS>BOND
  1   1   2  2   
  2   2   3  2   
  3   2   4  1   
  4   4   5  2   
  5   4   6  1   
  6   5   7  1   
  7   5   8  1   
  8   6   9  2   
  9   6  10  am  
 10   8  11  2   
 11  10  11  1   
 12  10  27  1   
 13  11  12  1   
 14  12  13  2   
 15  12  28  1   
 16  13  14  1   
 17  13  29  1   
 18  14  15  ar  
 19  14  16  ar  
 20  15  17  ar  
 21  15  30  1   
 22  16  18  ar  
 23  16  31  1   
 24  17  19  1   
 25  17  20  ar  
 26  18  20  ar  
 27  18  32  1   
 28  19  21  1   
 29  20  22  1   
 30  21  23  1   
 31  21  33  1   
 32  21  34  1   
 33  22  24  1   
 34  23  35  1   
 35  23  36  1   
 36  23  37  1   
 37  24  25  1   
 38  24  26  1   
 39  24  38  1   
 40  25  39  1   
 41  25  40  1   
 42  25  41  1   
 43  26  42  1   
 44  26  43  1   
 45  26  44  1   
@<TRIPOS>SUBSTRUCTURE
  1 ****  10 GROUP 4 **** **** 0

# MOE 2024.06 (io_trps.svl 2023.06)
