@<TRIPOS>MOLECULE
N-Bicyclo[2.2.1]hept-2-yl-2-(5-methyl-4H-[1,2,4]triazol-3-ylsulfanyl)-acetamide
36 38 1 0 0 
SMALL
USER_CHARGES


@<TRIPOS>ATOM
  1 S       -0.5410     0.5640     0.0640 S.3   1 <1>  -0.2860 
  2 C        1.2450     0.6980    -0.0030 C.2   1 <1>   0.2420 
  3 C       -0.9920     1.8070     1.3760 C.3   1 <1>   0.1310 
  4 N        1.9430     1.5110     0.7050 N.2   1 <1>  -0.3380 
  5 N        1.9740    -0.0570    -0.8110 N.pl3 1 <1>   0.0330 
  6 C       -2.4980     1.9070     1.5660 C.2   1 <1>   0.5690 
  7 N        3.2170     1.2930     0.3530 N.2   1 <1>  -0.3380 
  8 C        3.2140     0.3630    -0.5440 C.2   1 <1>   0.0060 
  9 O       -2.9160     2.4170     2.5770 O.2   1 <1>  -0.5700 
 10 N       -3.3320     1.4360     0.6030 N.am  1 <1>  -0.7300 
 11 C        4.4540    -0.1920    -1.2160 C.3   1 <1>  -0.0600 
 12 C       -4.8110     1.4540     0.6540 C.3   1 <1>   0.2200 
 13 C       -5.4310    -0.0620     0.6390 C.3   1 <1>  -0.0800 
 14 C       -5.4080     2.2550    -0.6820 C.3   1 <1>  -0.1600 
 15 C       -5.9900     0.6090    -0.3760 C.3   1 <1>  -0.1600 
 16 C       -6.5530    -1.0260    -0.0610 C.3   1 <1>  -0.1600 
 17 C       -6.5200     1.2890    -1.3970 C.3   1 <1>  -0.0800 
 18 C       -7.1530    -0.2190    -1.3990 C.3   1 <1>  -0.1600 
 19 H       -0.5910     2.7550     1.0700 H     1 <1>   0.0800 
 20 H       -0.5200     1.4920     2.2880 H     1 <1>   0.0800 
 21 H        1.6460    -0.7700    -1.4620 H     1 <1>   0.2700 
 22 H       -2.9280     0.9870    -0.2200 H     1 <1>   0.3700 
 23 H        4.5430    -1.2450    -1.0190 H     1 <1>   0.0800 
 24 H        5.3280     0.3040    -0.8330 H     1 <1>   0.0800 
 25 H        4.4050    -0.0290    -2.2770 H     1 <1>   0.0800 
 26 H       -5.1320     1.9630     1.5520 H     1 <1>   0.0800 
 27 H       -4.5420    -0.6640     0.5070 H     1 <1>   0.0800 
 28 H       -4.6140     2.4840    -1.3760 H     1 <1>   0.0800 
 29 H       -5.8550     3.1870    -0.3770 H     1 <1>   0.0800 
 30 H       -5.1330     0.2200    -1.0860 H     1 <1>   0.0800 
 31 H       -6.8370     1.0110     0.3360 H     1 <1>   0.0800 
 32 H       -7.3500    -1.2340     0.6370 H     1 <1>   0.0800 
 33 H       -6.1240    -1.9720    -0.3520 H     1 <1>   0.0800 
 34 H       -7.4160     1.8840    -1.2760 H     1 <1>   0.0800 
 35 H       -8.2310    -0.1880    -1.3670 H     1 <1>   0.0800 
 36 H       -6.8720    -0.7380    -2.3040 H     1 <1>   0.0800 
@<TRIPOS>BOND
  1   1   2  1   
  2   1   3  1   
  3   2   4  2   
  4   2   5  1   
  5   3   6  1   
  6   3  19  1   
  7   3  20  1   
  8   4   7  1   
  9   5   8  1   
 10   5  21  1   
 11   6   9  2   
 12   6  10  am  
 13   7   8  2   
 14   8  11  1   
 15  10  12  1   
 16  10  22  1   
 17  11  23  1   
 18  11  24  1   
 19  11  25  1   
 20  12  13  1   
 21  12  14  1   
 22  12  26  1   
 23  13  15  1   
 24  13  16  1   
 25  13  27  1   
 26  14  17  1   
 27  14  28  1   
 28  14  29  1   
 29  15  17  1   
 30  15  30  1   
 31  15  31  1   
 32  16  18  1   
 33  16  32  1   
 34  16  33  1   
 35  17  18  1   
 36  17  34  1   
 37  18  35  1   
 38  18  36  1   
@<TRIPOS>SUBSTRUCTURE
  1 ****   1 GROUP 4 **** **** 0

# MOE 2024.06 (io_trps.svl 2023.06)
