@<TRIPOS>MOLECULE
N-[1-(4-Allyl-5-mercapto-4H-[1,2,4]triazol-3-yl)-2-methyl-propyl]-benzamide
42 43 1 0 0 
SMALL
USER_CHARGES


@<TRIPOS>ATOM
  1 S       -1.7410     1.4220    -2.9780 S.3   1 <1>  -0.9360 
  2 C       -1.4440     2.6000    -1.9050 C.cat 1 <1>   0.7360 
  3 N       -0.3040     3.2420    -1.8080 N.pl3 1 <1>  -0.3930 
  4 N       -2.2680     3.0560    -0.9820 N.pl3 1 <1>  -0.7640 
  5 N       -0.3490     4.1510    -0.7940 N.2   1 <1>  -0.2600 
  6 C       -1.5390     4.0250    -0.3140 C.2   1 <1>   0.4850 
  7 C       -3.6180     2.4980    -0.7710 C.3   1 <1>   0.4920 
  8 C       -2.0660     4.8650     0.8700 C.3   1 <1>   0.3880 
  9 C       -4.6440     3.6140    -0.7660 C.2   1 <1>  -0.2880 
 10 N       -1.6820     6.2990     0.7460 N.am  1 <1>  -0.7300 
 11 C       -1.5720     4.3270     2.2390 C.3   1 <1>  -0.0800 
 12 C       -5.4880     3.9160     0.2280 C.2   1 <1>  -0.3000 
 13 C       -2.4730     7.2610     0.2110 C.2   1 <1>   0.5440 
 14 C       -1.9520     2.8520     2.4590 C.3   1 <1>  -0.2400 
 15 C       -2.1210     5.1480     3.4230 C.3   1 <1>  -0.2400 
 16 O       -2.4780     8.3220     0.7930 O.2   1 <1>  -0.5700 
 17 C       -3.2960     7.0380    -0.9630 C.ar  1 <1>   0.0860 
 18 C       -4.6440     7.3970    -0.9700 C.ar  1 <1>  -0.1500 
 19 C       -2.7750     6.4660    -2.1230 C.ar  1 <1>  -0.1500 
 20 C       -5.4420     7.1740    -2.0770 C.ar  1 <1>  -0.1500 
 21 C       -3.5680     6.2370    -3.2330 C.ar  1 <1>  -0.1500 
 22 C       -4.9050     6.5900    -3.2100 C.ar  1 <1>  -0.1500 
 23 H        0.4750     3.0270    -2.4320 H     1 <1>   0.4500 
 24 H       -3.6400     1.9620     0.1610 H     1 <1>   0.0800 
 25 H       -3.8720     1.8030    -1.5540 H     1 <1>   0.0800 
 26 H       -3.1360     4.8210     0.8700 H     1 <1>   0.0800 
 27 H       -4.6290     4.1590    -1.6940 H     1 <1>   0.1500 
 28 H       -1.0950     6.6340     1.5100 H     1 <1>   0.3700 
 29 H       -0.4960     4.3890     2.2510 H     1 <1>   0.0800 
 30 H       -6.2030     4.7210     0.1740 H     1 <1>   0.1500 
 31 H       -5.5470     3.3950     1.1690 H     1 <1>   0.1500 
 32 H       -3.0200     2.7240     2.4370 H     1 <1>   0.0800 
 33 H       -1.5930     2.5150     3.4160 H     1 <1>   0.0800 
 34 H       -1.5080     2.2190     1.7100 H     1 <1>   0.0800 
 35 H       -3.1970     5.1370     3.4280 H     1 <1>   0.0800 
 36 H       -1.7940     6.1720     3.3800 H     1 <1>   0.0800 
 37 H       -1.7740     4.7380     4.3560 H     1 <1>   0.0800 
 38 H       -5.0610     7.8610    -0.0920 H     1 <1>   0.1500 
 39 H       -1.7330     6.2030    -2.1590 H     1 <1>   0.1500 
 40 H       -6.4810     7.4580    -2.0590 H     1 <1>   0.1500 
 41 H       -3.1450     5.7870    -4.1160 H     1 <1>   0.1500 
 42 H       -5.5240     6.4140    -4.0740 H     1 <1>   0.1500 
@<TRIPOS>BOND
  1   1   2  1   
  2   2   3  ar  
  3   2   4  ar  
  4   3   5  1   
  5   3  23  1   
  6   4   6  1   
  7   4   7  1   
  8   5   6  2   
  9   6   8  1   
 10   7   9  1   
 11   7  24  1   
 12   7  25  1   
 13   8  10  1   
 14   8  11  1   
 15   8  26  1   
 16   9  12  2   
 17   9  27  1   
 18  10  13  am  
 19  10  28  1   
 20  11  14  1   
 21  11  15  1   
 22  11  29  1   
 23  12  30  1   
 24  12  31  1   
 25  13  16  2   
 26  13  17  1   
 27  14  32  1   
 28  14  33  1   
 29  14  34  1   
 30  15  35  1   
 31  15  36  1   
 32  15  37  1   
 33  17  18  ar  
 34  17  19  ar  
 35  18  20  ar  
 36  18  38  1   
 37  19  21  ar  
 38  19  39  1   
 39  20  22  ar  
 40  20  40  1   
 41  21  22  ar  
 42  21  41  1   
 43  22  42  1   
@<TRIPOS>SUBSTRUCTURE
  1 ****   6 GROUP 4 **** **** 0

# MOE 2024.06 (io_trps.svl 2023.06)
