@<TRIPOS>MOLECULE
8-(3-Methoxy-phenyl)-1,6,7-trimethyl-3-(2-oxo-propyl)-1H,8H-imidazo[2,1-f]purine
51 54 1 0 0 
SMALL
USER_CHARGES


@<TRIPOS>ATOM
  1 O        1.1680    -0.2930    -0.1290 O.2   1 <1>  -0.5740 
  2 C        2.0760     0.3970     0.2900 C.2   1 <1>   0.6860 
  3 N        1.8030     1.6610     0.7950 N.am  1 <1>  -0.4260 
  4 N        3.3810    -0.0750     0.2550 N.am  1 <1>  -0.4410 
  5 C        2.8080     2.4630     1.3100 C.2   1 <1>   0.6990 
  6 C        0.5590     2.3460     0.3210 C.3   1 <1>   0.1940 
  7 C        4.3880     0.7760     0.6670 C.2   1 <1>   0.4210 
  8 C        3.6850    -1.4240    -0.3060 C.3   1 <1>   0.0520 
  9 O        2.5300     3.5230     1.8480 O.2   1 <1>  -0.5740 
 10 C        4.1530     2.0060     1.1890 C.2   1 <1>   0.2710 
 11 C        0.8120     3.0400    -1.0170 C.2   1 <1>   0.4430 
 12 N        5.7330     0.5530     0.6220 N.pl3 1 <1>  -0.7040 
 13 N        5.4120     2.5560     1.4810 N.pl3 1 <1>  -0.6330 
 14 O        1.9080     3.1050    -1.4970 O.2   1 <1>  -0.5740 
 15 C       -0.3860     3.6470    -1.7120 C.3   1 <1>  -0.1860 
 16 C        6.3080     1.6550     1.1110 C.cat 1 <1>   1.0690 
 17 C        6.1170     3.6570     1.9220 C.2   1 <1>   0.2340 
 18 N        7.5610     2.0770     1.2990 N.pl3 1 <1>  -0.5550 
 19 C        7.4350     3.3640     1.8100 C.2   1 <1>   0.1580 
 20 C        5.3900     4.8970     2.4030 C.3   1 <1>  -0.1090 
 21 C        8.7160     1.3600     0.9550 C.ar  1 <1>   0.3050 
 22 C        8.6610     4.2010     2.1340 C.3   1 <1>  -0.1090 
 23 C        8.9850     1.0890    -0.3760 C.ar  1 <1>  -0.1570 
 24 C        9.5750     0.8860     1.9350 C.ar  1 <1>  -0.1570 
 25 C       10.0870     0.3340    -0.7320 C.ar  1 <1>   0.0750 
 26 C       10.6870     0.1380     1.5870 C.ar  1 <1>  -0.1570 
 27 O       10.2520     0.1030    -2.0550 O.3   1 <1>  -0.3680 
 28 C       10.9430    -0.1420     0.2560 C.ar  1 <1>  -0.1570 
 29 C       11.3830    -0.5870    -2.5420 C.3   1 <1>   0.0320 
 30 H        0.2440     3.0760     1.0460 H     1 <1>   0.0720 
 31 H       -0.2390     1.6330     0.2090 H     1 <1>   0.0720 
 32 H        2.8390    -2.0800    -0.1860 H     1 <1>   0.0720 
 33 H        4.5240    -1.8650     0.2030 H     1 <1>   0.0720 
 34 H        3.9060    -1.3380    -1.3560 H     1 <1>   0.0720 
 35 H        6.2360    -0.2520     0.2540 H     1 <1>   0.4450 
 36 H       -1.1090     2.8840    -1.9340 H     1 <1>   0.0720 
 37 H       -0.0760     4.1080    -2.6330 H     1 <1>   0.0720 
 38 H       -0.8360     4.3950    -1.0850 H     1 <1>   0.0720 
 39 H        4.7750     5.2910     1.6130 H     1 <1>   0.0720 
 40 H        6.0830     5.6570     2.7090 H     1 <1>   0.0720 
 41 H        4.7580     4.6510     3.2380 H     1 <1>   0.0720 
 42 H        9.2420     3.7260     2.9040 H     1 <1>   0.0720 
 43 H        8.3790     5.1800     2.4770 H     1 <1>   0.0720 
 44 H        9.2730     4.3120     1.2570 H     1 <1>   0.0720 
 45 H        8.3460     1.4620    -1.1540 H     1 <1>   0.1430 
 46 H        9.3770     1.0950     2.9710 H     1 <1>   0.1430 
 47 H       11.3540    -0.2290     2.3500 H     1 <1>   0.1430 
 48 H       11.8100    -0.7280     0.0090 H     1 <1>   0.1430 
 49 H       11.3170    -0.6240    -3.6150 H     1 <1>   0.0720 
 50 H       11.3840    -1.5860    -2.1430 H     1 <1>   0.0720 
 51 H       12.2710    -0.0540    -2.2500 H     1 <1>   0.0720 
@<TRIPOS>BOND
  1   1   2  2   
  2   2   3  am  
  3   2   4  am  
  4   3   5  am  
  5   3   6  1   
  6   4   7  1   
  7   4   8  1   
  8   5   9  2   
  9   5  10  1   
 10   6  11  1   
 11   6  30  1   
 12   6  31  1   
 13   7  10  2   
 14   7  12  1   
 15   8  32  1   
 16   8  33  1   
 17   8  34  1   
 18  10  13  1   
 19  11  14  2   
 20  11  15  1   
 21  12  16  ar  
 22  12  35  1   
 23  13  16  ar  
 24  13  17  1   
 25  15  36  1   
 26  15  37  1   
 27  15  38  1   
 28  16  18  ar  
 29  17  19  2   
 30  17  20  1   
 31  18  19  1   
 32  18  21  1   
 33  19  22  1   
 34  20  39  1   
 35  20  40  1   
 36  20  41  1   
 37  21  23  ar  
 38  21  24  ar  
 39  22  42  1   
 40  22  43  1   
 41  22  44  1   
 42  23  25  ar  
 43  23  45  1   
 44  24  26  ar  
 45  24  46  1   
 46  25  27  1   
 47  25  28  ar  
 48  26  28  ar  
 49  26  47  1   
 50  27  29  1   
 51  28  48  1   
 52  29  49  1   
 53  29  50  1   
 54  29  51  1   
@<TRIPOS>SUBSTRUCTURE
  1 ****  16 GROUP 4 **** **** 0

# MOE 2024.06 (io_trps.svl 2023.06)
