@<TRIPOS>MOLECULE
5-Oxo-1-(toluene-4-sulfonyl)-pyrrolidine-2-carboxylic acid (4-chloro-2-methoxy-5
50 52 1 0 0 
SMALL
USER_CHARGES


@<TRIPOS>ATOM
  1 CL      -0.9670    -0.5650    -0.3770 Cl    1 <1>  -0.1770 
  2 C       -2.0850     0.7810    -0.3930 C.ar  1 <1>   0.1770 
  3 C       -2.0410     1.7140    -1.4180 C.ar  1 <1>  -0.1440 
  4 C       -2.9990     0.8790     0.6380 C.ar  1 <1>  -0.1500 
  5 C       -2.9440     2.7660    -1.3930 C.ar  1 <1>  -0.1500 
  6 C       -1.0300     1.5980    -2.5480 C.3   1 <1>  -0.0960 
  7 C       -3.9010     1.9350     0.6530 C.ar  1 <1>   0.0830 
  8 C       -3.8810     2.8890    -0.3720 C.ar  1 <1>   0.1170 
  9 O       -4.8330     2.0940     1.6360 O.3   1 <1>  -0.3630 
 10 N       -4.8090     3.9460    -0.3240 N.am  1 <1>  -0.5470 
 11 C       -5.0110     1.1340     2.6550 C.3   1 <1>   0.0400 
 12 C       -5.4150     4.6640    -1.3200 C.2   1 <1>   0.5690 
 13 O       -5.1020     4.5520    -2.4830 O.2   1 <1>  -0.5700 
 14 C       -6.5710     5.6190    -0.9310 C.3   1 <1>   0.3370 
 15 N       -7.7340     4.8650    -0.4210 N.am  1 <1>  -0.7300 
 16 C       -7.1790     6.4160    -2.1070 C.3   1 <1>  -0.1600 
 17 S       -7.9270     4.6070     1.2640 S.o2  1 <1>   1.4470 
 18 C       -8.7720     4.8760    -1.2570 C.2   1 <1>   0.7450 
 19 C       -8.4440     5.6430    -2.5070 C.3   1 <1>  -0.0990 
 20 O       -6.5730     4.6440     1.7680 O.2   1 <1>  -0.6500 
 21 O       -8.8600     5.6140     1.7090 O.2   1 <1>  -0.6500 
 22 C       -8.5960     2.9270     1.3920 C.ar  1 <1>  -0.0090 
 23 O       -9.8420     4.3630    -1.0590 O.2   1 <1>  -0.5700 
 24 C       -7.9660     1.8550     0.7690 C.ar  1 <1>  -0.1500 
 25 C       -9.7450     2.6630     2.1270 C.ar  1 <1>  -0.1500 
 26 C       -8.4610     0.5670     0.8790 C.ar  1 <1>  -0.1500 
 27 C      -10.2460     1.3780     2.2400 C.ar  1 <1>  -0.1500 
 28 C       -9.6050     0.3210     1.6170 C.ar  1 <1>  -0.1430 
 29 C      -10.1610    -1.0850     1.7430 C.3   1 <1>  -0.0970 
 30 H       -2.9820     0.1290     1.4050 H     1 <1>   0.1500 
 31 H       -2.9190     3.5010    -2.1760 H     1 <1>   0.1500 
 32 H       -1.1570     0.6620    -3.0610 H     1 <1>   0.0800 
 33 H       -0.0310     1.6440    -2.1530 H     1 <1>   0.0800 
 34 H       -1.1510     2.3950    -3.2600 H     1 <1>   0.0800 
 35 H       -5.2120     4.0650     0.6200 H     1 <1>   0.3700 
 36 H       -5.8260     1.4580     3.2770 H     1 <1>   0.0800 
 37 H       -4.1090     1.0720     3.2380 H     1 <1>   0.0800 
 38 H       -5.2500     0.1860     2.2070 H     1 <1>   0.0800 
 39 H       -6.2120     6.3050    -0.1820 H     1 <1>   0.0800 
 40 H       -6.5000     6.5500    -2.9310 H     1 <1>   0.0800 
 41 H       -7.4580     7.3900    -1.7440 H     1 <1>   0.0800 
 42 H       -8.2390     4.9460    -3.2990 H     1 <1>   0.0800 
 43 H       -9.2510     6.2960    -2.7840 H     1 <1>   0.0800 
 44 H       -7.0750     2.0250     0.1900 H     1 <1>   0.1500 
 45 H      -10.2600     3.4760     2.6130 H     1 <1>   0.1500 
 46 H       -7.9500    -0.2400     0.3830 H     1 <1>   0.1500 
 47 H      -11.1390     1.2040     2.8150 H     1 <1>   0.1500 
 48 H       -9.7290    -1.7350     1.0040 H     1 <1>   0.0800 
 49 H      -11.2270    -1.0750     1.6030 H     1 <1>   0.0800 
 50 H       -9.9420    -1.4780     2.7200 H     1 <1>   0.0800 
@<TRIPOS>BOND
  1   1   2  1   
  2   2   3  ar  
  3   2   4  ar  
  4   3   5  ar  
  5   3   6  1   
  6   4   7  ar  
  7   4  30  1   
  8   5   8  ar  
  9   5  31  1   
 10   6  32  1   
 11   6  33  1   
 12   6  34  1   
 13   7   8  ar  
 14   7   9  1   
 15   8  10  1   
 16   9  11  1   
 17  10  12  am  
 18  10  35  1   
 19  11  36  1   
 20  11  37  1   
 21  11  38  1   
 22  12  13  2   
 23  12  14  1   
 24  14  15  1   
 25  14  16  1   
 26  14  39  1   
 27  15  17  am  
 28  15  18  am  
 29  16  19  1   
 30  16  40  1   
 31  16  41  1   
 32  17  20  2   
 33  17  21  2   
 34  17  22  1   
 35  18  19  1   
 36  18  23  2   
 37  19  42  1   
 38  19  43  1   
 39  22  24  ar  
 40  22  25  ar  
 41  24  26  ar  
 42  24  44  1   
 43  25  27  ar  
 44  25  45  1   
 45  26  28  ar  
 46  26  46  1   
 47  27  28  ar  
 48  27  47  1   
 49  28  29  1   
 50  29  48  1   
 51  29  49  1   
 52  29  50  1   
@<TRIPOS>SUBSTRUCTURE
  1 ****  10 GROUP 4 **** **** 0

# MOE 2024.06 (io_trps.svl 2023.06)
