@<TRIPOS>MOLECULE
6-Ethoxy-indan-5-carbaldehyde
28 29 1 0 0 
SMALL
USER_CHARGES


@<TRIPOS>ATOM
  1 O       -0.4490    -0.1890    -0.0330 O.2   1 <1>  -0.5700 
  2 C       -1.4270    -0.8980    -0.0280 C.2   1 <1>   0.4240 
  3 C       -1.4070    -2.3380     0.0010 C.ar  1 <1>   0.0860 
  4 C       -2.5960    -3.0880     0.0060 C.ar  1 <1>   0.0830 
  5 C       -0.1910    -3.0280     0.0240 C.ar  1 <1>  -0.1500 
  6 O       -3.7670    -2.4050    -0.0170 O.3   1 <1>  -0.3630 
  7 C       -2.5560    -4.4820     0.0340 C.ar  1 <1>  -0.1500 
  8 C       -0.1680    -4.4060     0.0520 C.ar  1 <1>  -0.1430 
  9 C       -5.0230    -3.0440    -0.0160 C.3   1 <1>   0.1200 
 10 C       -1.3360    -5.1250     0.0560 C.ar  1 <1>  -0.1430 
 11 C        1.0360    -5.3140     0.0790 C.3   1 <1>  -0.0160 
 12 C       -6.0990    -1.9630    -0.0470 C.3   1 <1>  -0.2400 
 13 C       -1.0650    -6.6090     0.0870 C.3   1 <1>  -0.0170 
 14 C        0.4420    -6.7030    -0.2120 C.3   1 <1>  -0.1600 
 15 H       -2.3860    -0.4130    -0.0460 H     1 <1>   0.0600 
 16 H        0.7310    -2.4730     0.0210 H     1 <1>   0.1500 
 17 H       -3.4490    -5.0770     0.0380 H     1 <1>   0.1500 
 18 H       -5.1040    -3.6370     0.8780 H     1 <1>   0.0800 
 19 H       -5.0880    -3.6710    -0.8890 H     1 <1>   0.0800 
 20 H        1.4820    -5.2890     1.0580 H     1 <1>   0.0800 
 21 H        1.7630    -5.0310    -0.6620 H     1 <1>   0.0800 
 22 H       -6.0160    -1.3330     0.8200 H     1 <1>   0.0800 
 23 H       -7.0720    -2.4190    -0.0470 H     1 <1>   0.0800 
 24 H       -6.0000    -1.3670    -0.9360 H     1 <1>   0.0800 
 25 H       -1.6470    -7.1350    -0.6480 H     1 <1>   0.0800 
 26 H       -1.2810    -6.9920     1.0690 H     1 <1>   0.0800 
 27 H        0.9180    -7.4720     0.3690 H     1 <1>   0.0800 
 28 H        0.5730    -6.9220    -1.2580 H     1 <1>   0.0800 
@<TRIPOS>BOND
  1   1   2  2   
  2   2   3  1   
  3   2  15  1   
  4   3   4  ar  
  5   3   5  ar  
  6   4   6  1   
  7   4   7  ar  
  8   5   8  ar  
  9   5  16  1   
 10   6   9  1   
 11   7  10  ar  
 12   7  17  1   
 13   8  10  ar  
 14   8  11  1   
 15   9  12  1   
 16   9  18  1   
 17   9  19  1   
 18  10  13  1   
 19  11  14  1   
 20  11  20  1   
 21  11  21  1   
 22  12  22  1   
 23  12  23  1   
 24  12  24  1   
 25  13  14  1   
 26  13  25  1   
 27  13  26  1   
 28  14  27  1   
 29  14  28  1   
@<TRIPOS>SUBSTRUCTURE
  1 ****   4 GROUP 4 **** **** 0

# MOE 2024.06 (io_trps.svl 2023.06)
