@<TRIPOS>MOLECULE
6-Methoxy-1,2,3,4-tetrahydro-naphthalen-1-ylamine
29 30 1 0 0 
SMALL
USER_CHARGES


@<TRIPOS>ATOM
  1 O        0.2800     0.0020    -0.4230 O.3   1 <1>  -0.3630 
  2 C        1.4350     0.6800    -0.2190 C.ar  1 <1>   0.0830 
  3 C       -0.9760     0.5690    -0.1200 C.3   1 <1>   0.0400 
  4 C        2.6100     0.0070    -0.4990 C.ar  1 <1>  -0.1500 
  5 C        1.4970     1.9840     0.2540 C.ar  1 <1>  -0.1500 
  6 C        3.8420     0.6150    -0.3280 C.ar  1 <1>  -0.1430 
  7 C        2.7230     2.6000     0.4240 C.ar  1 <1>  -0.1500 
  8 C        3.9070     1.9340     0.1170 C.ar  1 <1>  -0.1440 
  9 C        5.0920    -0.2050    -0.6220 C.3   1 <1>  -0.0170 
 10 C        5.2430     2.6490     0.2920 C.3   1 <1>   0.5660 
 11 C        6.3080     0.3440     0.1280 C.3   1 <1>  -0.1600 
 12 N        5.1850     3.8620    -0.5270 N.4   1 <1>  -0.8530 
 13 C        6.4660     1.8390    -0.1660 C.3   1 <1>  -0.1600 
 14 H       -1.7340    -0.1590    -0.3490 H     1 <1>   0.0800 
 15 H       -1.1190     1.4460    -0.7260 H     1 <1>   0.0800 
 16 H       -1.0070     0.8110     0.9270 H     1 <1>   0.0800 
 17 H        2.5410    -1.0080    -0.8510 H     1 <1>   0.1500 
 18 H        0.6010     2.5260     0.4960 H     1 <1>   0.1500 
 19 H        2.7260     3.6040     0.8100 H     1 <1>   0.1500 
 20 H        5.2770    -0.1960    -1.6830 H     1 <1>   0.0800 
 21 H        4.9320    -1.2290    -0.3280 H     1 <1>   0.0800 
 22 H        5.3600     2.9040     1.3340 H     1 <1>   0.0800 
 23 H        7.1900    -0.1910    -0.1820 H     1 <1>   0.0800 
 24 H        6.1790     0.1840     1.1860 H     1 <1>   0.0800 
 25 H        4.9670     3.5770    -1.4870 H     1 <1>   0.4500 
 26 H        6.0700     4.3730    -0.5070 H     1 <1>   0.4500 
 27 H        4.4220     4.4600    -0.2040 H     1 <1>   0.4500 
 28 H        7.3440     2.2040     0.3390 H     1 <1>   0.0800 
 29 H        6.6160     1.9470    -1.2270 H     1 <1>   0.0800 
@<TRIPOS>BOND
  1   1   2  1   
  2   1   3  1   
  3   2   4  ar  
  4   2   5  ar  
  5   3  14  1   
  6   3  15  1   
  7   3  16  1   
  8   4   6  ar  
  9   4  17  1   
 10   5   7  ar  
 11   5  18  1   
 12   6   8  ar  
 13   6   9  1   
 14   7   8  ar  
 15   7  19  1   
 16   8  10  1   
 17   9  11  1   
 18   9  20  1   
 19   9  21  1   
 20  10  12  1   
 21  10  13  1   
 22  10  22  1   
 23  11  13  1   
 24  11  23  1   
 25  11  24  1   
 26  12  25  1   
 27  12  26  1   
 28  12  27  1   
 29  13  28  1   
 30  13  29  1   
@<TRIPOS>SUBSTRUCTURE
  1 ****   6 GROUP 4 **** **** 0

# MOE 2024.06 (io_trps.svl 2023.06)
