@<TRIPOS>MOLECULE
1-[5-Methyl-3-(toluene-4-sulfonyl)-imidazolidin-1-yl]-propan-1-one
40 41 1 0 0 
SMALL
USER_CHARGES


@<TRIPOS>ATOM
  1 S        0.7890    -0.7720    -0.8600 S.o2  1 <1>   1.4470 
  2 O        1.2600     0.1780    -1.8440 O.2   1 <1>  -0.6500 
  3 O        1.0900    -2.1770    -1.0270 O.2   1 <1>  -0.6500 
  4 N        1.4270    -0.3240     0.6400 N.am  1 <1>  -0.8490 
  5 C       -0.9970    -0.5670    -0.6120 C.ar  1 <1>  -0.0090 
  6 C        2.8120    -0.7280     0.7250 C.3   1 <1>   0.4960 
  7 C        1.4120     1.1240     0.8710 C.3   1 <1>   0.1960 
  8 C       -1.6630    -1.2640     0.3890 C.ar  1 <1>  -0.1500 
  9 C       -1.7440     0.2950    -1.4070 C.ar  1 <1>  -0.1500 
 10 N        3.5890     0.4370     0.2960 N.am  1 <1>  -0.6600 
 11 C        2.7960     1.6540     0.4910 C.3   1 <1>   0.2200 
 12 C       -3.0230    -1.1060     0.5930 C.ar  1 <1>  -0.1500 
 13 C       -3.1050     0.4570    -1.2090 C.ar  1 <1>  -0.1500 
 14 C        4.6900     0.4010    -0.5100 C.2   1 <1>   0.5690 
 15 C        3.4240     2.5100     1.5930 C.3   1 <1>  -0.2400 
 16 C       -3.7520    -0.2440    -0.2070 C.ar  1 <1>  -0.1440 
 17 O        5.1870     1.4180    -0.9350 O.2   1 <1>  -0.5700 
 18 C        5.3150    -0.9410    -0.8860 C.3   1 <1>  -0.0990 
 19 C       -5.2440    -0.0680     0.0140 C.3   1 <1>  -0.0970 
 20 C        6.7110    -0.8440    -1.5280 C.3   1 <1>  -0.2400 
 21 H        3.0250    -1.5990     0.1290 H     1 <1>   0.0800 
 22 H        3.0540    -0.9460     1.7520 H     1 <1>   0.0800 
 23 H        1.2270     1.3070     1.9150 H     1 <1>   0.0800 
 24 H        0.6400     1.6200     0.3050 H     1 <1>   0.0800 
 25 H       -1.1080    -1.9400     1.0170 H     1 <1>   0.1500 
 26 H       -1.2570     0.8460    -2.1940 H     1 <1>   0.1500 
 27 H        2.7420     2.2050    -0.4340 H     1 <1>   0.0800 
 28 H       -3.5120    -1.6600     1.3770 H     1 <1>   0.1500 
 29 H       -3.6570     1.1320    -1.8400 H     1 <1>   0.1500 
 30 H        3.5140     1.9510     2.5070 H     1 <1>   0.0800 
 31 H        2.8190     3.3800     1.7730 H     1 <1>   0.0800 
 32 H        4.4000     2.8390     1.2840 H     1 <1>   0.0800 
 33 H        4.6530    -1.4340    -1.5740 H     1 <1>   0.0800 
 34 H        5.3950    -1.5440    -0.0010 H     1 <1>   0.0800 
 35 H       -5.6770    -0.9740     0.3970 H     1 <1>   0.0800 
 36 H       -5.7350     0.1760    -0.9110 H     1 <1>   0.0800 
 37 H       -5.4170     0.7250     0.7190 H     1 <1>   0.0800 
 38 H        6.6590    -0.2780    -2.4420 H     1 <1>   0.0800 
 39 H        7.0890    -1.8260    -1.7510 H     1 <1>   0.0800 
 40 H        7.3940    -0.3500    -0.8590 H     1 <1>   0.0800 
@<TRIPOS>BOND
  1   1   2  2   
  2   1   3  2   
  3   1   4  am  
  4   1   5  1   
  5   4   6  1   
  6   4   7  1   
  7   5   8  ar  
  8   5   9  ar  
  9   6  10  1   
 10   6  21  1   
 11   6  22  1   
 12   7  11  1   
 13   7  23  1   
 14   7  24  1   
 15   8  12  ar  
 16   8  25  1   
 17   9  13  ar  
 18   9  26  1   
 19  10  11  1   
 20  10  14  am  
 21  11  15  1   
 22  11  27  1   
 23  12  16  ar  
 24  12  28  1   
 25  13  16  ar  
 26  13  29  1   
 27  14  17  2   
 28  14  18  1   
 29  15  30  1   
 30  15  31  1   
 31  15  32  1   
 32  16  19  1   
 33  18  20  1   
 34  18  33  1   
 35  18  34  1   
 36  19  35  1   
 37  19  36  1   
 38  19  37  1   
 39  20  38  1   
 40  20  39  1   
 41  20  40  1   
@<TRIPOS>SUBSTRUCTURE
  1 ****   1 GROUP 4 **** **** 0

# MOE 2024.06 (io_trps.svl 2023.06)
