@<TRIPOS>MOLECULE
3-[3-(3-Methoxy-phenyl)-[1,2,4]oxadiazol-5-yl]-N-propyl-propionamide
40 41 1 0 0 
SMALL
USER_CHARGES


@<TRIPOS>ATOM
  1 O       -0.1200    -0.1340    -1.3770 O.2   1 <1>  -0.5700 
  2 C        0.3860    -1.2200    -1.2630 C.2   1 <1>   0.5690 
  3 N        1.7060    -1.3180    -0.9860 N.am  1 <1>  -0.7300 
  4 C       -0.4900    -2.4450    -1.4130 C.3   1 <1>  -0.0990 
  5 C        2.5500    -2.5120    -0.7610 C.3   1 <1>   0.1400 
  6 C       -0.9660    -2.9400    -0.0430 C.3   1 <1>   0.0200 
  7 C        3.1140    -2.4590     0.6580 C.3   1 <1>  -0.1600 
  8 C       -1.7380    -4.2380    -0.1660 C.2   1 <1>   0.2980 
  9 C        3.9690    -3.6940     0.9630 C.3   1 <1>  -0.2400 
 10 O       -1.0900    -5.3220    -0.5030 O.3   1 <1>  -0.0190 
 11 N       -2.9800    -4.3840     0.0310 N.2   1 <1>  -0.5650 
 12 N       -2.0030    -6.2400    -0.5250 N.2   1 <1>  -0.4100 
 13 C       -3.1240    -5.6920    -0.2100 C.2   1 <1>   0.4620 
 14 C       -4.4050    -6.3730    -0.1170 C.ar  1 <1>   0.0540 
 15 C       -5.5770    -5.6930     0.2150 C.ar  1 <1>  -0.1500 
 16 C       -4.5140    -7.7440    -0.3580 C.ar  1 <1>  -0.1500 
 17 C       -6.7990    -6.3370     0.3050 C.ar  1 <1>   0.0820 
 18 C       -5.7280    -8.4020    -0.2730 C.ar  1 <1>  -0.1500 
 19 O       -7.8690    -5.5720     0.6350 O.3   1 <1>  -0.3630 
 20 C       -6.8740    -7.7040     0.0590 C.ar  1 <1>  -0.1500 
 21 C       -9.1600    -6.1260     0.7540 C.3   1 <1>   0.0400 
 22 H        2.1910    -0.4200    -0.9070 H     1 <1>   0.3700 
 23 H        0.0480    -3.2140    -1.9350 H     1 <1>   0.0800 
 24 H       -1.3450    -2.1860    -2.0110 H     1 <1>   0.0800 
 25 H        3.3540    -2.5160    -1.4780 H     1 <1>   0.0800 
 26 H        1.9790    -3.4140    -0.8900 H     1 <1>   0.0800 
 27 H       -1.5980    -2.1940     0.4060 H     1 <1>   0.0800 
 28 H       -0.1270    -3.1010     0.6090 H     1 <1>   0.0800 
 29 H        2.3040    -2.4100     1.3650 H     1 <1>   0.0800 
 30 H        3.7200    -1.5760     0.7710 H     1 <1>   0.0800 
 31 H        3.3810    -4.5920     0.8800 H     1 <1>   0.0800 
 32 H        4.3560    -3.6340     1.9660 H     1 <1>   0.0800 
 33 H        4.7990    -3.7580     0.2820 H     1 <1>   0.0800 
 34 H       -5.5440    -4.6360     0.4100 H     1 <1>   0.1500 
 35 H       -3.6320    -8.3050    -0.6170 H     1 <1>   0.1500 
 36 H       -5.7790    -9.4600    -0.4640 H     1 <1>   0.1500 
 37 H       -7.8050    -8.2340     0.1190 H     1 <1>   0.1500 
 38 H       -9.8390    -5.3370     1.0220 H     1 <1>   0.0800 
 39 H       -9.1480    -6.8750     1.5260 H     1 <1>   0.0800 
 40 H       -9.4460    -6.5500    -0.1920 H     1 <1>   0.0800 
@<TRIPOS>BOND
  1   1   2  2   
  2   2   3  am  
  3   2   4  1   
  4   3   5  1   
  5   3  22  1   
  6   4   6  1   
  7   4  23  1   
  8   4  24  1   
  9   5   7  1   
 10   5  25  1   
 11   5  26  1   
 12   6   8  1   
 13   6  27  1   
 14   6  28  1   
 15   7   9  1   
 16   7  29  1   
 17   7  30  1   
 18   8  10  1   
 19   8  11  2   
 20   9  31  1   
 21   9  32  1   
 22   9  33  1   
 23  10  12  1   
 24  11  13  1   
 25  12  13  2   
 26  13  14  1   
 27  14  15  ar  
 28  14  16  ar  
 29  15  17  ar  
 30  15  34  1   
 31  16  18  ar  
 32  16  35  1   
 33  17  19  1   
 34  17  20  ar  
 35  18  20  ar  
 36  18  36  1   
 37  19  21  1   
 38  20  37  1   
 39  21  38  1   
 40  21  39  1   
 41  21  40  1   
@<TRIPOS>SUBSTRUCTURE
  1 ****  11 GROUP 4 **** **** 0

# MOE 2024.06 (io_trps.svl 2023.06)
