@<TRIPOS>MOLECULE
2-(3,4-Dimethyl-phenoxy)-N-[2-(4-methanesulfonyl-piperazin-1-yl)-phenyl]-acetami
56 58 1 0 0 
SMALL
USER_CHARGES


@<TRIPOS>ATOM
  1 S        0.9360     0.4040     0.0350 S.o2  1 <1>   1.3330 
  2 O        1.9890     0.8340    -0.8550 O.2   1 <1>  -0.6500 
  3 O        1.2270     0.1180     1.4200 O.2   1 <1>  -0.6500 
  4 N       -0.3040     1.5550    -0.0180 N.am  1 <1>  -0.8490 
  5 C        0.1490    -1.0350    -0.6560 C.3   1 <1>  -0.1350 
  6 C       -0.1760     2.5460     1.0730 C.3   1 <1>   0.1960 
  7 C       -0.3850     2.2520    -1.3220 C.3   1 <1>   0.1960 
  8 C       -1.3200     3.5810     1.0690 C.3   1 <1>   0.2090 
  9 C       -1.5480     3.2610    -1.3750 C.3   1 <1>   0.2090 
 10 N       -1.4350     4.2470    -0.2620 N.pl3 1 <1>  -0.8380 
 11 C       -2.2480     5.3940    -0.3140 C.ar  1 <1>   0.1000 
 12 C       -1.6580     6.6650    -0.2760 C.ar  1 <1>   0.1170 
 13 C       -3.6310     5.2920    -0.3930 C.ar  1 <1>  -0.1500 
 14 N       -0.2580     6.7010    -0.1950 N.am  1 <1>  -0.5470 
 15 C       -2.4580     7.7970    -0.3220 C.ar  1 <1>  -0.1500 
 16 C       -4.4220     6.4270    -0.4390 C.ar  1 <1>  -0.1500 
 17 C        0.6770     7.6760    -0.0120 C.2   1 <1>   0.5690 
 18 C       -3.8360     7.6800    -0.4030 C.ar  1 <1>  -0.1500 
 19 O        0.4140     8.8520     0.0770 O.2   1 <1>  -0.5700 
 20 C        2.1360     7.2510     0.1000 C.3   1 <1>   0.1810 
 21 O        2.2760     5.8430    -0.0560 O.3   1 <1>  -0.3630 
 22 C        3.4850     5.2370     0.0420 C.ar  1 <1>   0.0820 
 23 C        4.6640     5.8990     0.3700 C.ar  1 <1>  -0.1500 
 24 C        3.5180     3.8770    -0.2040 C.ar  1 <1>  -0.1500 
 25 C        5.8620     5.2040     0.4580 C.ar  1 <1>  -0.1440 
 26 C        4.7060     3.1800    -0.1150 C.ar  1 <1>  -0.1500 
 27 C        5.8840     3.8330     0.2150 C.ar  1 <1>  -0.1440 
 28 C        7.1330     5.9600     0.8210 C.3   1 <1>  -0.0970 
 29 C        7.1710     3.0260     0.3030 C.3   1 <1>  -0.0970 
 30 H       -0.1620    -0.8450    -1.6630 H     1 <1>   0.0800 
 31 H       -0.7100    -1.3000    -0.0700 H     1 <1>   0.0800 
 32 H        0.8330    -1.8600    -0.6560 H     1 <1>   0.0800 
 33 H        0.7640     3.0640     0.9890 H     1 <1>   0.0800 
 34 H       -0.1880     2.0400     2.0240 H     1 <1>   0.0800 
 35 H       -0.5160     1.5310    -2.1090 H     1 <1>   0.0800 
 36 H        0.5330     2.7840    -1.5130 H     1 <1>   0.0800 
 37 H       -1.1320     4.3240     1.8240 H     1 <1>   0.0800 
 38 H       -2.2460     3.0870     1.3060 H     1 <1>   0.0800 
 39 H       -2.4820     2.7320    -1.3010 H     1 <1>   0.0800 
 40 H       -1.5280     3.7850    -2.3150 H     1 <1>   0.0800 
 41 H       -4.0890     4.3220    -0.4150 H     1 <1>   0.1500 
 42 H        0.1190     5.7470    -0.2440 H     1 <1>   0.3700 
 43 H       -2.0110     8.7740    -0.2950 H     1 <1>   0.1500 
 44 H       -5.4930     6.3370    -0.5010 H     1 <1>   0.1500 
 45 H       -4.4470     8.5650    -0.4390 H     1 <1>   0.1500 
 46 H        2.5050     7.5240     1.0710 H     1 <1>   0.0800 
 47 H        2.7120     7.7370    -0.6650 H     1 <1>   0.0800 
 48 H        4.6650     6.9540     0.5610 H     1 <1>   0.1500 
 49 H        2.6160     3.3600    -0.4660 H     1 <1>   0.1500 
 50 H        4.7000     2.1200    -0.3080 H     1 <1>   0.1500 
 51 H        6.9340     7.0060     0.9680 H     1 <1>   0.0800 
 52 H        7.8560     5.8630     0.0320 H     1 <1>   0.0800 
 53 H        7.5490     5.5650     1.7300 H     1 <1>   0.0800 
 54 H        7.8870     3.3940    -0.4090 H     1 <1>   0.0800 
 55 H        6.9890     1.9880     0.0910 H     1 <1>   0.0800 
 56 H        7.5860     3.0990     1.2910 H     1 <1>   0.0800 
@<TRIPOS>BOND
  1   1   2  2   
  2   1   3  2   
  3   1   4  am  
  4   1   5  1   
  5   4   6  1   
  6   4   7  1   
  7   5  30  1   
  8   5  31  1   
  9   5  32  1   
 10   6   8  1   
 11   6  33  1   
 12   6  34  1   
 13   7   9  1   
 14   7  35  1   
 15   7  36  1   
 16   8  10  1   
 17   8  37  1   
 18   8  38  1   
 19   9  10  1   
 20   9  39  1   
 21   9  40  1   
 22  10  11  1   
 23  11  12  ar  
 24  11  13  ar  
 25  12  14  1   
 26  12  15  ar  
 27  13  16  ar  
 28  13  41  1   
 29  14  17  am  
 30  14  42  1   
 31  15  18  ar  
 32  15  43  1   
 33  16  18  ar  
 34  16  44  1   
 35  17  19  2   
 36  17  20  1   
 37  18  45  1   
 38  20  21  1   
 39  20  46  1   
 40  20  47  1   
 41  21  22  1   
 42  22  23  ar  
 43  22  24  ar  
 44  23  25  ar  
 45  23  48  1   
 46  24  26  ar  
 47  24  49  1   
 48  25  27  ar  
 49  25  28  1   
 50  26  27  ar  
 51  26  50  1   
 52  27  29  1   
 53  28  51  1   
 54  28  52  1   
 55  28  53  1   
 56  29  54  1   
 57  29  55  1   
 58  29  56  1   
@<TRIPOS>SUBSTRUCTURE
  1 ****  21 GROUP 4 **** **** 0

# MOE 2024.06 (io_trps.svl 2023.06)
