@<TRIPOS>MOLECULE
N-[3-(3,4-Dimethoxy-phenyl)-[1,2,4]oxadiazol-5-ylmethyl]-3-oxo-butyramide
40 41 1 0 0 
SMALL
USER_CHARGES


@<TRIPOS>ATOM
  1 O       -0.3120     2.1140     1.7670 O.2   1 <1>  -0.5700 
  2 C        0.1310     2.2750     0.6580 C.2   1 <1>   0.5690 
  3 N        1.3930     1.9100     0.3310 N.am  1 <1>  -0.7300 
  4 C       -0.7450     2.8910    -0.3970 C.3   1 <1>  -0.0380 
  5 C        2.3820     1.3430     1.2860 C.3   1 <1>   0.3200 
  6 C       -0.9750     1.8690    -1.4770 C.2   1 <1>   0.4480 
  7 C        3.7050     2.0900     1.2220 C.2   1 <1>   0.2980 
  8 O       -0.2650     1.8220    -2.4350 O.2   1 <1>  -0.5700 
  9 C       -2.1200     0.8970    -1.2930 C.3   1 <1>  -0.1790 
 10 O        3.7500     3.3210     1.6590 O.3   1 <1>  -0.0190 
 11 N        4.8010     1.6310     0.7730 N.2   1 <1>  -0.5650 
 12 N        4.9820     3.6780     1.4720 N.2   1 <1>  -0.4100 
 13 C        5.6080     2.6840     0.9470 C.2   1 <1>   0.4620 
 14 C        7.0140     2.6690     0.5780 C.ar  1 <1>   0.0540 
 15 C        7.6150     1.5470     0.0090 C.ar  1 <1>  -0.1500 
 16 C        7.8270     3.7840     0.7790 C.ar  1 <1>  -0.1500 
 17 C        8.9530     1.5180    -0.3440 C.ar  1 <1>   0.0830 
 18 C        9.1640     3.7840     0.4250 C.ar  1 <1>  -0.1500 
 19 O        9.3830     0.3390    -0.8750 O.3   1 <1>  -0.3630 
 20 C        9.7480     2.6590    -0.1490 C.ar  1 <1>   0.0830 
 21 C       10.6850    -0.1390    -0.6190 C.3   1 <1>   0.0400 
 22 O       11.0560     2.6550    -0.5350 O.3   1 <1>  -0.3630 
 23 C       11.8450     3.8240    -0.5300 C.3   1 <1>   0.0400 
 24 H        1.7120     1.9940    -0.6400 H     1 <1>   0.3700 
 25 H       -0.2510     3.7500    -0.8090 H     1 <1>   0.0800 
 26 H       -1.6790     3.2030     0.0310 H     1 <1>   0.0800 
 27 H        2.5510     0.3090     1.0400 H     1 <1>   0.0800 
 28 H        2.0010     1.3920     2.2910 H     1 <1>   0.0800 
 29 H       -3.0530     1.4280    -1.2720 H     1 <1>   0.0800 
 30 H       -1.9980     0.3540    -0.3740 H     1 <1>   0.0800 
 31 H       -2.1370     0.1980    -2.1100 H     1 <1>   0.0800 
 32 H        7.0280     0.6630    -0.1650 H     1 <1>   0.1500 
 33 H        7.4040     4.6700     1.2210 H     1 <1>   0.1500 
 34 H        9.7310     4.6770     0.6070 H     1 <1>   0.1500 
 35 H       10.6900    -1.2010    -0.7810 H     1 <1>   0.0800 
 36 H       10.9470     0.0810     0.4010 H     1 <1>   0.0800 
 37 H       11.3690     0.3350    -1.2990 H     1 <1>   0.0800 
 38 H       12.8060     3.5800    -0.9460 H     1 <1>   0.0800 
 39 H       11.9640     4.1620     0.4840 H     1 <1>   0.0800 
 40 H       11.3650     4.5730    -1.1350 H     1 <1>   0.0800 
@<TRIPOS>BOND
  1   1   2  2   
  2   2   3  am  
  3   2   4  1   
  4   3   5  1   
  5   3  24  1   
  6   4   6  1   
  7   4  25  1   
  8   4  26  1   
  9   5   7  1   
 10   5  27  1   
 11   5  28  1   
 12   6   8  2   
 13   6   9  1   
 14   7  10  1   
 15   7  11  2   
 16   9  29  1   
 17   9  30  1   
 18   9  31  1   
 19  10  12  1   
 20  11  13  1   
 21  12  13  2   
 22  13  14  1   
 23  14  15  ar  
 24  14  16  ar  
 25  15  17  ar  
 26  15  32  1   
 27  16  18  ar  
 28  16  33  1   
 29  17  19  1   
 30  17  20  ar  
 31  18  20  ar  
 32  18  34  1   
 33  19  21  1   
 34  20  22  1   
 35  21  35  1   
 36  21  36  1   
 37  21  37  1   
 38  22  23  1   
 39  23  38  1   
 40  23  39  1   
 41  23  40  1   
@<TRIPOS>SUBSTRUCTURE
  1 ****  11 GROUP 4 **** **** 0

# MOE 2024.06 (io_trps.svl 2023.06)
