@<TRIPOS>MOLECULE
1-{2-[(2-Methoxy-5-methyl-benzenesulfonyl)-methyl-amino]-acetyl}-piperidine-4-ca
51 52 1 0 0 
SMALL
USER_CHARGES


@<TRIPOS>ATOM
  1 S        0.5520    -0.4510    -0.3230 S.o2  1 <1>   1.4470 
  2 O       -0.6440    -1.1850    -0.6840 O.2   1 <1>  -0.6500 
  3 O        1.7500    -0.7390    -1.0770 O.2   1 <1>  -0.6500 
  4 N        0.8280    -0.8270     1.3110 N.am  1 <1>  -0.8490 
  5 C        0.2010     1.3240    -0.2990 C.ar  1 <1>  -0.0090 
  6 C        1.7300    -1.9900     1.5070 C.3   1 <1>   0.2570 
  7 C       -0.3960    -0.9360     2.1080 C.3   1 <1>   0.1160 
  8 C        1.1830     2.2460     0.0480 C.ar  1 <1>   0.0830 
  9 C       -1.0680     1.8100    -0.5980 C.ar  1 <1>  -0.1500 
 10 C        3.2230    -1.6280     1.6610 C.2   1 <1>   0.5690 
 11 O        2.4340     1.8270     0.3270 O.3   1 <1>  -0.3630 
 12 C        0.9050     3.6040     0.0910 C.ar  1 <1>  -0.1500 
 13 C       -1.3590     3.1640    -0.5520 C.ar  1 <1>  -0.1440 
 14 O        3.5330    -1.0970     2.7070 O.2   1 <1>  -0.5700 
 15 N        4.1850    -1.9260     0.7180 N.am  1 <1>  -0.6600 
 16 C        2.8590     1.9080     1.6690 C.3   1 <1>   0.0400 
 17 C       -0.3640     4.0620    -0.2070 C.ar  1 <1>  -0.1500 
 18 C       -2.7540     3.6620    -0.8860 C.3   1 <1>  -0.0970 
 19 C        5.5870    -1.4510     0.8830 C.3   1 <1>   0.1400 
 20 C        3.9540    -2.5970    -0.5930 C.3   1 <1>   0.1400 
 21 C        6.5390    -2.6460     0.8010 C.3   1 <1>  -0.1600 
 22 C        4.8700    -3.8160    -0.7070 C.3   1 <1>  -0.1600 
 23 C        6.3480    -3.4310    -0.5130 C.3   1 <1>  -0.0190 
 24 C        7.2540    -4.6550    -0.5820 C.2   1 <1>   0.5690 
 25 O        8.0550    -4.7590    -1.4740 O.2   1 <1>  -0.5700 
 26 N        7.1530    -5.6230     0.3480 N.am  1 <1>  -0.8000 
 27 H        1.5720    -2.7100     0.7300 H     1 <1>   0.0800 
 28 H        1.4660    -2.4810     2.4260 H     1 <1>   0.0800 
 29 H       -0.9960    -0.0510     1.9850 H     1 <1>   0.0800 
 30 H       -0.1480    -1.0320     3.1520 H     1 <1>   0.0800 
 31 H       -0.9730    -1.7930     1.8000 H     1 <1>   0.0800 
 32 H       -1.8410     1.1120    -0.8720 H     1 <1>   0.1500 
 33 H        1.6850     4.2980     0.3480 H     1 <1>   0.1500 
 34 H        3.8320     1.4550     1.7400 H     1 <1>   0.0800 
 35 H        2.1650     1.3690     2.2890 H     1 <1>   0.0800 
 36 H        2.9090     2.9400     1.9640 H     1 <1>   0.0800 
 37 H       -0.5720     5.1170    -0.1720 H     1 <1>   0.1500 
 38 H       -3.4870     2.9010    -0.6850 H     1 <1>   0.0800 
 39 H       -2.8070     3.9260    -1.9280 H     1 <1>   0.0800 
 40 H       -2.9950     4.5280    -0.2970 H     1 <1>   0.0800 
 41 H        5.7200    -0.9510     1.8260 H     1 <1>   0.0800 
 42 H        5.8100    -0.7450     0.1010 H     1 <1>   0.0800 
 43 H        4.1690    -1.8980    -1.3840 H     1 <1>   0.0800 
 44 H        2.9360    -2.9130    -0.7120 H     1 <1>   0.0800 
 45 H        6.3590    -3.2820     1.6490 H     1 <1>   0.0800 
 46 H        7.5540    -2.2950     0.8640 H     1 <1>   0.0800 
 47 H        4.7430    -4.2620    -1.6780 H     1 <1>   0.0800 
 48 H        4.5720    -4.5410     0.0290 H     1 <1>   0.0800 
 49 H        6.6290    -2.7820    -1.3250 H     1 <1>   0.0800 
 50 H        7.7650    -6.4370     0.2890 H     1 <1>   0.3700 
 51 H        6.5040    -5.5870     1.1320 H     1 <1>   0.3700 
@<TRIPOS>BOND
  1   1   2  2   
  2   1   3  2   
  3   1   4  am  
  4   1   5  1   
  5   4   6  1   
  6   4   7  1   
  7   5   8  ar  
  8   5   9  ar  
  9   6  10  1   
 10   6  27  1   
 11   6  28  1   
 12   7  29  1   
 13   7  30  1   
 14   7  31  1   
 15   8  11  1   
 16   8  12  ar  
 17   9  13  ar  
 18   9  32  1   
 19  10  14  2   
 20  10  15  am  
 21  11  16  1   
 22  12  17  ar  
 23  12  33  1   
 24  13  17  ar  
 25  13  18  1   
 26  15  19  1   
 27  15  20  1   
 28  16  34  1   
 29  16  35  1   
 30  16  36  1   
 31  17  37  1   
 32  18  38  1   
 33  18  39  1   
 34  18  40  1   
 35  19  21  1   
 36  19  41  1   
 37  19  42  1   
 38  20  22  1   
 39  20  43  1   
 40  20  44  1   
 41  21  23  1   
 42  21  45  1   
 43  21  46  1   
 44  22  23  1   
 45  22  47  1   
 46  22  48  1   
 47  23  24  1   
 48  23  49  1   
 49  24  25  2   
 50  24  26  am  
 51  26  50  1   
 52  26  51  1   
@<TRIPOS>SUBSTRUCTURE
  1 ****   3 GROUP 4 **** **** 0

# MOE 2024.06 (io_trps.svl 2023.06)
