@<TRIPOS>MOLECULE
sec-Butyl-[3-(4-chloro-phenyl)-[1,2,4]oxadiazol-5-ylmethyl]-amine
35 36 1 0 0 
SMALL
USER_CHARGES


@<TRIPOS>ATOM
  1 CL       1.3870     1.0380    -2.5530 Cl    1 <1>  -0.1770 
  2 C        2.7860     0.8650    -1.5260 C.ar  1 <1>   0.1770 
  3 C        2.6330     0.8960    -0.1540 C.ar  1 <1>  -0.1500 
  4 C        4.0330     0.6990    -2.0950 C.ar  1 <1>  -0.1500 
  5 C        3.7470     0.7590     0.6560 C.ar  1 <1>  -0.1500 
  6 C        5.1400     0.5630    -1.2760 C.ar  1 <1>  -0.1500 
  7 C        5.0270     0.5890     0.1190 C.ar  1 <1>   0.0540 
  8 C        6.1880     0.4460     0.9840 C.2   1 <1>   0.4620 
  9 N        6.1700     0.4560     2.2700 N.2   1 <1>  -0.4100 
 10 N        7.4360     0.2840     0.5180 N.2   1 <1>  -0.5650 
 11 O        7.3810     0.3040     2.6980 O.3   1 <1>  -0.0190 
 12 C        8.0870     0.2070     1.6070 C.2   1 <1>   0.2980 
 13 C        9.5930     0.0180     1.7360 C.3   1 <1>   0.5230 
 14 N       10.2200    -0.1620     0.3870 N.4   1 <1>  -0.9060 
 15 C       11.6900    -0.1940     0.3660 C.3   1 <1>   0.4230 
 16 C       12.1350    -0.0520    -1.0960 C.3   1 <1>  -0.1600 
 17 C       12.1610    -1.5060     0.9930 C.3   1 <1>  -0.2400 
 18 C       13.6540     0.1180    -1.2550 C.3   1 <1>  -0.2400 
 19 H        1.6530     1.0270     0.2700 H     1 <1>   0.1500 
 20 H        4.1280     0.6780    -3.1670 H     1 <1>   0.1500 
 21 H        3.6170     0.7840     1.7250 H     1 <1>   0.1500 
 22 H        6.1060     0.4340    -1.7310 H     1 <1>   0.1500 
 23 H        9.7850    -0.8450     2.3520 H     1 <1>   0.0800 
 24 H       10.0090     0.8840     2.2230 H     1 <1>   0.0800 
 25 H        9.8750     0.6010    -0.2100 H     1 <1>   0.4500 
 26 H        9.8450    -1.0170    -0.0390 H     1 <1>   0.4500 
 27 H       12.0810     0.6400     0.9290 H     1 <1>   0.0800 
 28 H       11.6700     0.8200    -1.5250 H     1 <1>   0.0800 
 29 H       11.8240    -0.9120    -1.6650 H     1 <1>   0.0800 
 30 H       11.8080    -2.3540     0.4320 H     1 <1>   0.0800 
 31 H       11.8410    -1.5940     2.0150 H     1 <1>   0.0800 
 32 H       13.2350    -1.5420     1.0010 H     1 <1>   0.0800 
 33 H       14.0120     0.9500    -0.6740 H     1 <1>   0.0800 
 34 H       13.8920     0.3070    -2.2890 H     1 <1>   0.0800 
 35 H       14.1830    -0.7700    -0.9570 H     1 <1>   0.0800 
@<TRIPOS>BOND
  1   1   2  1   
  2   2   3  ar  
  3   2   4  ar  
  4   3   5  ar  
  5   3  19  1   
  6   4   6  ar  
  7   4  20  1   
  8   5   7  ar  
  9   5  21  1   
 10   6   7  ar  
 11   6  22  1   
 12   7   8  1   
 13   8   9  2   
 14   8  10  1   
 15   9  11  1   
 16  10  12  2   
 17  11  12  1   
 18  12  13  1   
 19  13  14  1   
 20  13  23  1   
 21  13  24  1   
 22  14  15  1   
 23  14  25  1   
 24  14  26  1   
 25  15  16  1   
 26  15  17  1   
 27  15  27  1   
 28  16  18  1   
 29  16  28  1   
 30  16  29  1   
 31  17  30  1   
 32  17  31  1   
 33  17  32  1   
 34  18  33  1   
 35  18  34  1   
 36  18  35  1   
@<TRIPOS>SUBSTRUCTURE
  1 ****  10 GROUP 4 **** **** 0

# MOE 2024.06 (io_trps.svl 2023.06)
