@<TRIPOS>MOLECULE
N-(2-Ethyl-2H-tetrazol-5-yl)-4-isopropoxy-benzamide
37 38 1 0 0 
SMALL
USER_CHARGES


@<TRIPOS>ATOM
  1 O       -0.0590    -0.6310     1.5810 O.2   1 <1>  -0.5700 
  2 C       -0.2760    -1.5720     0.8440 C.2   1 <1>   0.5440 
  3 N       -1.5420    -1.8100     0.3880 N.am  1 <1>  -0.4930 
  4 C        0.8020    -2.4660     0.4670 C.ar  1 <1>   0.0860 
  5 C       -2.7160    -1.0900     0.5390 C.2   1 <1>   0.5790 
  6 C        0.8090    -3.1540    -0.7500 C.ar  1 <1>  -0.1500 
  7 C        1.8880    -2.6760     1.3200 C.ar  1 <1>  -0.1500 
  8 N       -2.8270     0.1420     1.0310 N.2   1 <1>  -0.2270 
  9 N       -3.8200    -1.6150     0.1630 N.2   1 <1>  -0.7070 
 10 C        1.8370    -4.0170    -1.0830 C.ar  1 <1>  -0.1500 
 11 C        2.9210    -3.5350     0.9920 C.ar  1 <1>  -0.1500 
 12 N       -4.0690     0.4280     0.9760 N.2   1 <1>  -0.4180 
 13 N       -4.6570    -0.6340     0.4550 N.pl3 1 <1>   0.5800 
 14 C        2.9000    -4.2200    -0.2190 C.ar  1 <1>   0.0830 
 15 C       -6.1140    -0.7220     0.2220 C.3   1 <1>   0.0960 
 16 O        3.8590    -5.0820    -0.6280 O.3   1 <1>  -0.3630 
 17 C       -6.4820    -0.3450    -1.2210 C.3   1 <1>  -0.2400 
 18 C        4.9890    -5.4240     0.1430 C.3   1 <1>   0.2000 
 19 C        6.0400    -5.9700    -0.8200 C.3   1 <1>  -0.2400 
 20 C        4.5840    -6.4820     1.1720 C.3   1 <1>  -0.2400 
 21 H       -1.7120    -2.6940    -0.0750 H     1 <1>   0.3700 
 22 H        0.0090    -3.0100    -1.4540 H     1 <1>   0.1500 
 23 H        1.9160    -2.1480     2.2590 H     1 <1>   0.1500 
 24 H        1.8280    -4.5400    -2.0230 H     1 <1>   0.1500 
 25 H        3.7270    -3.6580     1.6890 H     1 <1>   0.1500 
 26 H       -6.6040    -0.0610     0.9120 H     1 <1>   0.0800 
 27 H       -6.4240    -1.7290     0.4310 H     1 <1>   0.0800 
 28 H       -6.1780     0.6660    -1.4310 H     1 <1>   0.0800 
 29 H       -7.5460    -0.4170    -1.3570 H     1 <1>   0.0800 
 30 H       -6.0020    -1.0120    -1.9150 H     1 <1>   0.0800 
 31 H        5.3720    -4.5370     0.6160 H     1 <1>   0.0800 
 32 H        5.6660    -6.8390    -1.3310 H     1 <1>   0.0800 
 33 H        6.9290    -6.2430    -0.2810 H     1 <1>   0.0800 
 34 H        6.2990    -5.2170    -1.5430 H     1 <1>   0.0800 
 35 H        4.1940    -7.3530     0.6760 H     1 <1>   0.0800 
 36 H        3.8370    -6.0960     1.8420 H     1 <1>   0.0800 
 37 H        5.4390    -6.7740     1.7540 H     1 <1>   0.0800 
@<TRIPOS>BOND
  1   1   2  2   
  2   2   3  am  
  3   2   4  1   
  4   3   5  1   
  5   3  21  1   
  6   4   6  ar  
  7   4   7  ar  
  8   5   8  1   
  9   5   9  2   
 10   6  10  ar  
 11   6  22  1   
 12   7  11  ar  
 13   7  23  1   
 14   8  12  2   
 15   9  13  1   
 16  10  14  ar  
 17  10  24  1   
 18  11  14  ar  
 19  11  25  1   
 20  12  13  1   
 21  13  15  1   
 22  14  16  1   
 23  15  17  1   
 24  15  26  1   
 25  15  27  1   
 26  16  18  1   
 27  17  28  1   
 28  17  29  1   
 29  17  30  1   
 30  18  19  1   
 31  18  20  1   
 32  18  31  1   
 33  19  32  1   
 34  19  33  1   
 35  19  34  1   
 36  20  35  1   
 37  20  36  1   
 38  20  37  1   
@<TRIPOS>SUBSTRUCTURE
  1 ****   4 GROUP 4 **** **** 0

# MOE 2024.06 (io_trps.svl 2023.06)
