@<TRIPOS>MOLECULE
8-(4-Methoxy-benzyl)-1,7-dimethyl-3-(2-oxo-propyl)-1H,8H-imidazo[2,1-f]purine-2,
51 54 1 0 0 
SMALL
USER_CHARGES


@<TRIPOS>ATOM
  1 O        1.0840    -0.3740     0.6830 O.2   1 <1>  -0.5740 
  2 C        2.0150     0.3960     0.8050 C.2   1 <1>   0.6860 
  3 N        1.7690     1.7420     1.0440 N.am  1 <1>  -0.4260 
  4 N        3.3200    -0.0660     0.6970 N.am  1 <1>  -0.4410 
  5 C        2.8060     2.6450     1.2150 C.2   1 <1>   0.6990 
  6 C        0.4450     2.2970     0.6200 C.3   1 <1>   0.1940 
  7 C        4.3400     0.8600     0.7650 C.2   1 <1>   0.4210 
  8 C        3.6080    -1.5060     0.4220 C.3   1 <1>   0.0520 
  9 O        2.5760     3.8020     1.5290 O.2   1 <1>  -0.5740 
 10 C        4.1360     2.1750     1.0190 C.2   1 <1>   0.2710 
 11 C        0.4770     2.6770    -0.8610 C.2   1 <1>   0.4430 
 12 N        5.6720     0.6410     0.5980 N.pl3 1 <1>  -0.7040 
 13 N        5.4050     2.7810     1.0090 N.pl3 1 <1>  -0.6330 
 14 O        1.4890     2.6510    -1.5000 O.2   1 <1>  -0.5740 
 15 C       -0.8350     3.0940    -1.4890 C.3   1 <1>  -0.1860 
 16 C        6.2830     1.8220     0.7430 C.cat 1 <1>   1.0690 
 17 C        6.1150     3.9590     1.1260 C.2   1 <1>   0.2220 
 18 N        7.5370     2.3050     0.6880 N.pl3 1 <1>  -0.5720 
 19 C        7.4210     3.6650     0.9310 C.2   1 <1>   0.1580 
 20 C        8.7910     1.5480     0.4130 C.3   1 <1>   0.3050 
 21 C        8.6240     4.5900     0.9510 C.3   1 <1>  -0.1090 
 22 C        8.4470     0.0890     0.1740 C.ar  1 <1>  -0.1510 
 23 C        8.3500    -0.7860     1.2460 C.ar  1 <1>  -0.1570 
 24 C        8.1400    -0.3560    -1.1040 C.ar  1 <1>  -0.1570 
 25 C        7.9000    -2.0770     1.0460 C.ar  1 <1>  -0.1570 
 26 C        7.6940    -1.6500    -1.3040 C.ar  1 <1>  -0.1570 
 27 C        7.5560    -2.5130    -0.2220 C.ar  1 <1>   0.0750 
 28 O        7.0890    -3.7790    -0.3250 O.3   1 <1>  -0.3680 
 29 C        6.9470    -4.4090    -1.5800 C.3   1 <1>   0.0320 
 30 H        0.2100     3.1680     1.2040 H     1 <1>   0.0720 
 31 H       -0.3320     1.5730     0.7860 H     1 <1>   0.0720 
 32 H        2.8080    -2.1260     0.7900 H     1 <1>   0.0720 
 33 H        4.5180    -1.8100     0.9090 H     1 <1>   0.0720 
 34 H        3.7030    -1.6600    -0.6390 H     1 <1>   0.0720 
 35 H        6.1790    -0.2240     0.3780 H     1 <1>   0.4450 
 36 H       -1.5440     2.2880    -1.4300 H     1 <1>   0.0720 
 37 H       -0.6800     3.3420    -2.5230 H     1 <1>   0.0720 
 38 H       -1.2300     3.9550    -0.9820 H     1 <1>   0.0720 
 39 H        5.6370     4.9040     1.3360 H     1 <1>   0.1430 
 40 H        9.4590     1.6380     1.2530 H     1 <1>   0.0720 
 41 H        9.2790     1.9590    -0.4550 H     1 <1>   0.0720 
 42 H        9.3180     4.2830     1.7140 H     1 <1>   0.0720 
 43 H        8.3170     5.6000     1.1580 H     1 <1>   0.0720 
 44 H        9.1230     4.5750    -0.0020 H     1 <1>   0.0720 
 45 H        8.6090    -0.4690     2.2440 H     1 <1>   0.1430 
 46 H        8.2320     0.3030    -1.9520 H     1 <1>   0.1430 
 47 H        7.8150    -2.7620     1.8730 H     1 <1>   0.1430 
 48 H        7.4560    -1.9700    -2.3020 H     1 <1>   0.1430 
 49 H        6.6570    -5.4300    -1.4110 H     1 <1>   0.0720 
 50 H        7.8920    -4.3790    -2.0950 H     1 <1>   0.0720 
 51 H        6.1850    -3.9030    -2.1440 H     1 <1>   0.0720 
@<TRIPOS>BOND
  1   1   2  2   
  2   2   3  am  
  3   2   4  am  
  4   3   5  am  
  5   3   6  1   
  6   4   7  1   
  7   4   8  1   
  8   5   9  2   
  9   5  10  1   
 10   6  11  1   
 11   6  30  1   
 12   6  31  1   
 13   7  10  2   
 14   7  12  1   
 15   8  32  1   
 16   8  33  1   
 17   8  34  1   
 18  10  13  1   
 19  11  14  2   
 20  11  15  1   
 21  12  16  ar  
 22  12  35  1   
 23  13  16  ar  
 24  13  17  1   
 25  15  36  1   
 26  15  37  1   
 27  15  38  1   
 28  16  18  ar  
 29  17  19  2   
 30  17  39  1   
 31  18  19  1   
 32  18  20  1   
 33  19  21  1   
 34  20  22  1   
 35  20  40  1   
 36  20  41  1   
 37  21  42  1   
 38  21  43  1   
 39  21  44  1   
 40  22  23  ar  
 41  22  24  ar  
 42  23  25  ar  
 43  23  45  1   
 44  24  26  ar  
 45  24  46  1   
 46  25  27  ar  
 47  25  47  1   
 48  26  27  ar  
 49  26  48  1   
 50  27  28  1   
 51  28  29  1   
 52  29  49  1   
 53  29  50  1   
 54  29  51  1   
@<TRIPOS>SUBSTRUCTURE
  1 ****  12 GROUP 4 **** **** 0

# MOE 2024.06 (io_trps.svl 2023.06)
