@<TRIPOS>MOLECULE
4-Ethoxy-3-isopropyl-N-pyridin-3-ylmethyl-benzenesulfonamide
45 46 1 0 0 
SMALL
USER_CHARGES


@<TRIPOS>ATOM
  1 S       -0.2750    -0.5480    -1.0960 S.o2  1 <1>   1.4470 
  2 O       -0.8700     0.7590    -1.2420 O.2   1 <1>  -0.6500 
  3 O       -0.5110    -1.5730    -2.0880 O.2   1 <1>  -0.6500 
  4 N       -0.8780    -1.1090     0.3640 N.am  1 <1>  -0.9140 
  5 C        1.5040    -0.3990    -0.7740 C.ar  1 <1>  -0.0090 
  6 C       -2.0640    -1.9390     0.2480 C.3   1 <1>   0.3390 
  7 C        2.0740     0.8180    -0.4190 C.ar  1 <1>  -0.1500 
  8 C        2.3410    -1.5030    -0.8530 C.ar  1 <1>  -0.1500 
  9 C       -3.2950    -1.0690     0.0790 C.ar  1 <1>  -0.1440 
 10 C        3.4300     0.9540    -0.1520 C.ar  1 <1>  -0.1430 
 11 C        3.6950    -1.3970    -0.5930 C.ar  1 <1>  -0.1500 
 12 C       -3.9980    -0.6310     1.1920 C.ar  1 <1>   0.1600 
 13 C       -3.7430    -0.7020    -1.1750 C.ar  1 <1>  -0.1500 
 14 C        4.2510    -0.1700    -0.2410 C.ar  1 <1>   0.0830 
 15 C        3.9860     2.3330     0.2300 C.3   1 <1>   0.0630 
 16 N       -5.0810     0.1260     1.1580 N.ar  1 <1>  -0.6200 
 17 C       -4.8700     0.0900    -1.2300 C.ar  1 <1>  -0.1500 
 18 O        5.5760    -0.0270     0.0210 O.3   1 <1>  -0.3620 
 19 C        3.3610     2.8320     1.5380 C.3   1 <1>  -0.2400 
 20 C        3.7640     3.3460    -0.8980 C.3   1 <1>  -0.2400 
 21 C       -5.4910     0.4700    -0.0530 C.ar  1 <1>   0.1600 
 22 C        6.4860    -1.0980    -0.0690 C.3   1 <1>   0.1200 
 23 C        7.8740    -0.5680     0.2760 C.3   1 <1>  -0.2400 
 24 H       -1.1790    -0.2520     0.8240 H     1 <1>   0.4200 
 25 H       -2.1670    -2.5100     1.1560 H     1 <1>   0.0800 
 26 H       -1.9770    -2.6480    -0.5590 H     1 <1>   0.0800 
 27 H        1.4330     1.6800    -0.3520 H     1 <1>   0.1500 
 28 H        1.9250    -2.4590    -1.1240 H     1 <1>   0.1500 
 29 H        4.2970    -2.2820    -0.6700 H     1 <1>   0.1500 
 30 H       -3.6530    -0.9180     2.1710 H     1 <1>   0.1500 
 31 H       -3.2370    -1.0100    -2.0750 H     1 <1>   0.1500 
 32 H        5.0480     2.2700     0.3920 H     1 <1>   0.0800 
 33 H       -5.2630     0.4120    -2.1770 H     1 <1>   0.1500 
 34 H        2.3040     2.9900     1.4260 H     1 <1>   0.0800 
 35 H        3.8170     3.7580     1.8370 H     1 <1>   0.0800 
 36 H        3.5210     2.1060     2.3150 H     1 <1>   0.0800 
 37 H        2.7160     3.5190    -1.0650 H     1 <1>   0.0800 
 38 H        4.2010     2.9770    -1.8080 H     1 <1>   0.0800 
 39 H        4.2300     4.2830    -0.6520 H     1 <1>   0.0800 
 40 H       -6.3690     1.0900    -0.1110 H     1 <1>   0.1500 
 41 H        6.4640    -1.4810    -1.0750 H     1 <1>   0.0800 
 42 H        6.1860    -1.8600     0.6300 H     1 <1>   0.0800 
 43 H        8.1570     0.2040    -0.4180 H     1 <1>   0.0800 
 44 H        8.5940    -1.3630     0.2160 H     1 <1>   0.0800 
 45 H        7.8810    -0.1720     1.2760 H     1 <1>   0.0800 
@<TRIPOS>BOND
  1   1   2  2   
  2   1   3  2   
  3   1   4  am  
  4   1   5  1   
  5   4   6  1   
  6   4  24  1   
  7   5   7  ar  
  8   5   8  ar  
  9   6   9  1   
 10   6  25  1   
 11   6  26  1   
 12   7  10  ar  
 13   7  27  1   
 14   8  11  ar  
 15   8  28  1   
 16   9  12  ar  
 17   9  13  ar  
 18  10  14  ar  
 19  10  15  1   
 20  11  14  ar  
 21  11  29  1   
 22  12  16  ar  
 23  12  30  1   
 24  13  17  ar  
 25  13  31  1   
 26  14  18  1   
 27  15  19  1   
 28  15  20  1   
 29  15  32  1   
 30  16  21  ar  
 31  17  21  ar  
 32  17  33  1   
 33  18  22  1   
 34  19  34  1   
 35  19  35  1   
 36  19  36  1   
 37  20  37  1   
 38  20  38  1   
 39  20  39  1   
 40  21  40  1   
 41  22  23  1   
 42  22  41  1   
 43  22  42  1   
 44  23  43  1   
 45  23  44  1   
 46  23  45  1   
@<TRIPOS>SUBSTRUCTURE
  1 ****   5 GROUP 4 **** **** 0

# MOE 2024.06 (io_trps.svl 2023.06)
