@<TRIPOS>MOLECULE
Thiophene-2-carboxylic acid [5-(tetrahydro-furan-2-yl)-[1,3,4]thiadiazol-2-yl]-a
29 31 1 0 0 
SMALL
USER_CHARGES


@<TRIPOS>ATOM
  1 S       -0.2740    -0.8010    -0.3310 S.3   1 <1>  -0.0800 
  2 C       -0.5370     0.7850     0.3280 C.2   1 <1>   0.4420 
  3 C        1.3070    -0.7520     0.3760 C.2   1 <1>   0.1980 
  4 N        0.4830     1.2150     0.9750 N.2   1 <1>  -0.3380 
  5 N       -1.7080     1.4820     0.1430 N.am  1 <1>  -0.4940 
  6 N        1.5290     0.3350     1.0020 N.2   1 <1>  -0.3380 
  7 C        2.2270    -1.9560     0.2010 C.3   1 <1>   0.3800 
  8 C       -2.9190     1.1340    -0.3950 C.2   1 <1>   0.7150 
  9 O        2.2610    -2.3770    -1.1370 O.3   1 <1>  -0.5600 
 10 C        1.8060    -3.1740     1.0250 C.3   1 <1>  -0.1600 
 11 O       -3.1360    -0.0180    -0.7090 O.2   1 <1>  -0.5700 
 12 C       -3.9150     2.1630    -0.5540 C.2   1 <1>  -0.0450 
 13 C        1.8510    -3.7000    -1.2760 C.3   1 <1>   0.1200 
 14 C        2.0580    -4.3380     0.0870 C.3   1 <1>  -0.1600 
 15 S       -5.5260     1.7090    -1.1250 S.3   1 <1>  -0.0800 
 16 C       -3.8970     3.5080    -0.3500 C.2   1 <1>  -0.1500 
 17 C       -6.1010     3.3590    -1.0570 C.2   1 <1>  -0.1100 
 18 C       -5.1230     4.1780    -0.6310 C.2   1 <1>  -0.1500 
 19 H       -1.6640     2.4260     0.5080 H     1 <1>   0.3700 
 20 H        3.2320    -1.6730     0.4600 H     1 <1>   0.0800 
 21 H        0.7590    -3.1130     1.2660 H     1 <1>   0.0800 
 22 H        2.3690    -3.2480     1.9380 H     1 <1>   0.0800 
 23 H        2.4310    -4.1730    -2.0490 H     1 <1>   0.0800 
 24 H        0.8080    -3.6940    -1.5460 H     1 <1>   0.0800 
 25 H        1.3870    -5.1630     0.2540 H     1 <1>   0.0800 
 26 H        3.0750    -4.6800     0.1700 H     1 <1>   0.0800 
 27 H       -3.0490     4.0750    -0.0060 H     1 <1>   0.1500 
 28 H       -7.1200     3.5440    -1.3470 H     1 <1>   0.1500 
 29 H       -5.2200     5.2430    -0.5030 H     1 <1>   0.1500 
@<TRIPOS>BOND
  1   1   2  1   
  2   1   3  1   
  3   2   4  2   
  4   2   5  1   
  5   3   6  2   
  6   3   7  1   
  7   4   6  1   
  8   5   8  am  
  9   5  19  1   
 10   7   9  1   
 11   7  10  1   
 12   7  20  1   
 13   8  11  2   
 14   8  12  1   
 15   9  13  1   
 16  10  14  1   
 17  10  21  1   
 18  10  22  1   
 19  12  15  1   
 20  12  16  2   
 21  13  14  1   
 22  13  23  1   
 23  13  24  1   
 24  14  25  1   
 25  14  26  1   
 26  15  17  1   
 27  16  18  1   
 28  16  27  1   
 29  17  18  2   
 30  17  28  1   
 31  18  29  1   
@<TRIPOS>SUBSTRUCTURE
  1 ****   2 GROUP 4 **** **** 0

# MOE 2024.06 (io_trps.svl 2023.06)
