@<TRIPOS>MOLECULE
[5-(4-Propyl-phenoxymethyl)-furan-2-yl]-pyrrolidin-1-yl-methanone
46 48 1 0 0 
SMALL
USER_CHARGES


@<TRIPOS>ATOM
  1 O       -0.1120     0.8710    -0.3510 O.2   1 <1>  -0.5700 
  2 C       -1.3000     0.5930    -0.3660 C.2   1 <1>   0.7150 
  3 N       -1.6520    -0.7360    -0.2410 N.am  1 <1>  -0.6600 
  4 C       -2.3010     1.6310    -0.5180 C.2   1 <1>   0.0550 
  5 C       -2.9840    -1.2220     0.1820 C.3   1 <1>   0.1400 
  6 C       -0.6360    -1.8050    -0.1080 C.3   1 <1>   0.1400 
  7 O       -2.1160     2.8430     0.0000 O.3   1 <1>  -0.2800 
  8 C       -3.5130     1.6230    -1.1450 C.2   1 <1>  -0.1500 
  9 C       -2.7100    -2.5530     0.8730 C.3   1 <1>  -0.1600 
 10 C       -1.4280    -3.0650     0.2230 C.3   1 <1>  -0.1600 
 11 C       -3.1580     3.5960    -0.2720 C.2   1 <1>  -0.0400 
 12 C       -4.0670     2.8920    -0.9800 C.2   1 <1>  -0.1500 
 13 C       -3.1890     5.0320     0.2200 C.3   1 <1>   0.3000 
 14 O       -2.4070     5.8370    -0.6340 O.3   1 <1>  -0.3630 
 15 C       -2.2740     7.1680    -0.4170 C.ar  1 <1>   0.0820 
 16 C       -1.4840     7.8680    -1.3130 C.ar  1 <1>  -0.1500 
 17 C       -2.8780     7.8500     0.6360 C.ar  1 <1>  -0.1500 
 18 C       -1.2960     9.2310    -1.1700 C.ar  1 <1>  -0.1500 
 19 C       -2.6880     9.2140     0.7770 C.ar  1 <1>  -0.1500 
 20 C       -1.8980     9.9130    -0.1240 C.ar  1 <1>  -0.1430 
 21 C       -1.6900    11.4100     0.0370 C.3   1 <1>  -0.0170 
 22 C       -0.4720    11.6900     0.9240 C.3   1 <1>  -0.1600 
 23 C       -0.2390    13.1940     1.1040 C.3   1 <1>  -0.2400 
 24 H       -3.5940    -1.3780    -0.6910 H     1 <1>   0.0800 
 25 H       -3.4640    -0.5260     0.8480 H     1 <1>   0.0800 
 26 H        0.0350    -1.5560     0.6980 H     1 <1>   0.0800 
 27 H       -0.0750    -1.9120    -1.0210 H     1 <1>   0.0800 
 28 H       -3.9710     0.8120    -1.6810 H     1 <1>   0.1500 
 29 H       -3.5300    -3.2400     0.7610 H     1 <1>   0.0800 
 30 H       -2.5420    -2.3750     1.9210 H     1 <1>   0.0800 
 31 H       -0.8750    -3.7250     0.8670 H     1 <1>   0.0800 
 32 H       -1.6600    -3.5810    -0.6920 H     1 <1>   0.0800 
 33 H       -5.0210     3.2160    -1.3590 H     1 <1>   0.1500 
 34 H       -2.7860     5.0910     1.2150 H     1 <1>   0.0800 
 35 H       -4.1960     5.4070     0.2010 H     1 <1>   0.0800 
 36 H       -1.0170     7.3360    -2.1230 H     1 <1>   0.1500 
 37 H       -3.4940     7.3450     1.3550 H     1 <1>   0.1500 
 38 H       -0.6770     9.7570    -1.8740 H     1 <1>   0.1500 
 39 H       -3.1560     9.7340     1.5940 H     1 <1>   0.1500 
 40 H       -2.5690    11.8510     0.4740 H     1 <1>   0.0800 
 41 H       -1.5470    11.8590    -0.9300 H     1 <1>   0.0800 
 42 H        0.4010    11.2430     0.4800 H     1 <1>   0.0800 
 43 H       -0.6220    11.2330     1.8880 H     1 <1>   0.0800 
 44 H       -0.0640    13.6640     0.1530 H     1 <1>   0.0800 
 45 H        0.6200    13.3590     1.7300 H     1 <1>   0.0800 
 46 H       -1.0930    13.6550     1.5690 H     1 <1>   0.0800 
@<TRIPOS>BOND
  1   1   2  2   
  2   2   3  am  
  3   2   4  1   
  4   3   5  1   
  5   3   6  1   
  6   4   7  1   
  7   4   8  2   
  8   5   9  1   
  9   5  24  1   
 10   5  25  1   
 11   6  10  1   
 12   6  26  1   
 13   6  27  1   
 14   7  11  1   
 15   8  12  1   
 16   8  28  1   
 17   9  10  1   
 18   9  29  1   
 19   9  30  1   
 20  10  31  1   
 21  10  32  1   
 22  11  12  2   
 23  11  13  1   
 24  12  33  1   
 25  13  14  1   
 26  13  34  1   
 27  13  35  1   
 28  14  15  1   
 29  15  16  ar  
 30  15  17  ar  
 31  16  18  ar  
 32  16  36  1   
 33  17  19  ar  
 34  17  37  1   
 35  18  20  ar  
 36  18  38  1   
 37  19  20  ar  
 38  19  39  1   
 39  20  21  1   
 40  21  22  1   
 41  21  40  1   
 42  21  41  1   
 43  22  23  1   
 44  22  42  1   
 45  22  43  1   
 46  23  44  1   
 47  23  45  1   
 48  23  46  1   
@<TRIPOS>SUBSTRUCTURE
  1 ****  13 GROUP 4 **** **** 0

# MOE 2024.06 (io_trps.svl 2023.06)
