@<TRIPOS>MOLECULE
1-(4-Ethoxy-3-methyl-benzenesulfonyl)-piperidine-4-carboxylic acid (2-methoxy-1-
57 58 1 0 0 
SMALL
USER_CHARGES


@<TRIPOS>ATOM
  1 S        0.1190    -0.0410    -2.7340 S.o2  1 <1>   1.4470 
  2 O        0.4850    -1.1200    -3.6250 O.2   1 <1>  -0.6500 
  3 O       -0.3160     1.2220    -3.2960 O.2   1 <1>  -0.6500 
  4 N        1.4800     0.3070    -1.7830 N.am  1 <1>  -0.8490 
  5 C       -1.0880    -0.6460    -1.5220 C.ar  1 <1>  -0.0090 
  6 C        1.2620     1.4730    -0.9210 C.3   1 <1>   0.1960 
  7 C        2.6810     0.4610    -2.6080 C.3   1 <1>   0.1960 
  8 C       -2.3540    -0.0830    -1.4190 C.ar  1 <1>  -0.1500 
  9 C       -0.7700    -1.6900    -0.6620 C.ar  1 <1>  -0.1500 
 10 C        2.4490     1.6640     0.0250 C.3   1 <1>  -0.1600 
 11 C        3.9190     0.6300    -1.7220 C.3   1 <1>  -0.1600 
 12 C       -3.2780    -0.5320    -0.4880 C.ar  1 <1>  -0.1430 
 13 C       -1.6780    -2.1530     0.2730 C.ar  1 <1>  -0.1500 
 14 C        3.7630     1.8180    -0.7570 C.3   1 <1>  -0.0190 
 15 C       -2.9410    -1.5760     0.3680 C.ar  1 <1>   0.0830 
 16 C       -4.6520     0.1170    -0.4110 C.3   1 <1>  -0.0970 
 17 C        4.9630     1.9510     0.1790 C.2   1 <1>   0.5690 
 18 O       -3.8750    -1.9830     1.2660 O.3   1 <1>  -0.3630 
 19 O        5.2180     1.0510     0.9420 O.2   1 <1>  -0.5700 
 20 N        5.7020     3.0930     0.1200 N.am  1 <1>  -0.7300 
 21 C       -3.6390    -3.0480     2.1560 C.3   1 <1>   0.1200 
 22 C        6.8530     3.4770     0.9770 C.3   1 <1>   0.2200 
 23 C       -4.8920    -3.2410     3.0040 C.3   1 <1>  -0.2400 
 24 C        7.8740     2.3380     1.1450 C.3   1 <1>   0.1200 
 25 C        6.3100     3.9750     2.3170 C.3   1 <1>  -0.2400 
 26 O        9.0510     2.8520     1.6950 O.3   1 <1>  -0.5600 
 27 C       10.0130     1.8830     1.9560 C.3   1 <1>   0.0400 
 28 H        0.3700     1.3310    -0.3340 H     1 <1>   0.0800 
 29 H        1.1290     2.3580    -1.5240 H     1 <1>   0.0800 
 30 H        2.5690     1.3110    -3.2610 H     1 <1>   0.0800 
 31 H        2.8170    -0.4160    -3.2200 H     1 <1>   0.0800 
 32 H       -2.6170     0.7240    -2.0820 H     1 <1>   0.1500 
 33 H        0.2060    -2.1420    -0.7280 H     1 <1>   0.1500 
 34 H        2.5110     0.8110     0.6800 H     1 <1>   0.0800 
 35 H        2.2850     2.5340     0.6350 H     1 <1>   0.0800 
 36 H        4.7850     0.7770    -2.3420 H     1 <1>   0.0800 
 37 H        4.0680    -0.2770    -1.1610 H     1 <1>   0.0800 
 38 H       -1.3830    -2.9610     0.9150 H     1 <1>   0.1500 
 39 H        3.6950     2.7150    -1.3460 H     1 <1>   0.0800 
 40 H       -4.7550     0.9040    -1.1360 H     1 <1>   0.0800 
 41 H       -4.8050     0.5310     0.5700 H     1 <1>   0.0800 
 42 H       -5.4130    -0.6200    -0.5950 H     1 <1>   0.0800 
 43 H        5.4080     3.8300    -0.5190 H     1 <1>   0.3700 
 44 H       -2.7960    -2.7940     2.7760 H     1 <1>   0.0800 
 45 H       -3.4280    -3.9330     1.5810 H     1 <1>   0.0800 
 46 H        7.3640     4.2890     0.4870 H     1 <1>   0.0800 
 47 H       -5.1030    -2.3460     3.5620 H     1 <1>   0.0800 
 48 H       -4.7440    -4.0500     3.6970 H     1 <1>   0.0800 
 49 H       -5.7310    -3.4780     2.3750 H     1 <1>   0.0800 
 50 H        8.1080     1.9070     0.1880 H     1 <1>   0.0800 
 51 H        7.4880     1.5820     1.8070 H     1 <1>   0.0800 
 52 H        5.8010     3.1790     2.8310 H     1 <1>   0.0800 
 53 H        5.6350     4.7970     2.1680 H     1 <1>   0.0800 
 54 H        7.1240     4.3100     2.9340 H     1 <1>   0.0800 
 55 H       10.8780     2.3720     2.3700 H     1 <1>   0.0800 
 56 H       10.2790     1.3890     1.0380 H     1 <1>   0.0800 
 57 H        9.6210     1.1760     2.6670 H     1 <1>   0.0800 
@<TRIPOS>BOND
  1   1   2  2   
  2   1   3  2   
  3   1   4  am  
  4   1   5  1   
  5   4   6  1   
  6   4   7  1   
  7   5   8  ar  
  8   5   9  ar  
  9   6  10  1   
 10   6  28  1   
 11   6  29  1   
 12   7  11  1   
 13   7  30  1   
 14   7  31  1   
 15   8  12  ar  
 16   8  32  1   
 17   9  13  ar  
 18   9  33  1   
 19  10  14  1   
 20  10  34  1   
 21  10  35  1   
 22  11  14  1   
 23  11  36  1   
 24  11  37  1   
 25  12  15  ar  
 26  12  16  1   
 27  13  15  ar  
 28  13  38  1   
 29  14  17  1   
 30  14  39  1   
 31  15  18  1   
 32  16  40  1   
 33  16  41  1   
 34  16  42  1   
 35  17  19  2   
 36  17  20  am  
 37  18  21  1   
 38  20  22  1   
 39  20  43  1   
 40  21  23  1   
 41  21  44  1   
 42  21  45  1   
 43  22  24  1   
 44  22  25  1   
 45  22  46  1   
 46  23  47  1   
 47  23  48  1   
 48  23  49  1   
 49  24  26  1   
 50  24  50  1   
 51  24  51  1   
 52  25  52  1   
 53  25  53  1   
 54  25  54  1   
 55  26  27  1   
 56  27  55  1   
 57  27  56  1   
 58  27  57  1   
@<TRIPOS>SUBSTRUCTURE
  1 ****   6 GROUP 4 **** **** 0

# MOE 2024.06 (io_trps.svl 2023.06)
