@<TRIPOS>MOLECULE
1-(4-Ethoxy-3-methyl-benzenesulfonyl)-piperidine-3-carboxylic acid (2-hydroxy-et
51 52 1 0 0 
SMALL
USER_CHARGES


@<TRIPOS>ATOM
  1 S       -0.0200    -1.1590     1.8870 S.o2  1 <1>   1.4470 
  2 O       -0.6790    -2.2650     2.5470 O.2   1 <1>  -0.6500 
  3 O        0.9720    -0.3940     2.6160 O.2   1 <1>  -0.6500 
  4 N        0.7750    -1.7990     0.5320 N.am  1 <1>  -0.8490 
  5 C       -1.2640    -0.0540     1.1650 C.ar  1 <1>  -0.0090 
  6 C        1.6150    -0.8100    -0.1800 C.3   1 <1>   0.1960 
  7 C        1.4420    -3.0730     0.8520 C.3   1 <1>   0.1960 
  8 C       -2.0730    -0.4760     0.1170 C.ar  1 <1>  -0.1500 
  9 C       -1.4440     1.2380     1.6430 C.ar  1 <1>  -0.1500 
 10 C        3.1020    -0.9580     0.1710 C.3   1 <1>  -0.0190 
 11 C        2.5120    -3.4240    -0.1880 C.3   1 <1>  -0.1600 
 12 C       -3.0260     0.3550    -0.4490 C.ar  1 <1>  -0.1440 
 13 C       -2.3910     2.0830     1.0910 C.ar  1 <1>  -0.1500 
 14 C        3.9070     0.1620    -0.4670 C.2   1 <1>   0.5690 
 15 C        3.6190    -2.3530    -0.2500 C.3   1 <1>  -0.1600 
 16 C       -3.1890     1.6470     0.0380 C.ar  1 <1>   0.0820 
 17 C       -3.8850    -0.1530    -1.5980 C.3   1 <1>  -0.0960 
 18 O        3.7250     0.4390    -1.6280 O.2   1 <1>  -0.5700 
 19 N        4.8250     0.8220     0.2840 N.am  1 <1>  -0.7300 
 20 O       -4.1340     2.4280    -0.5470 O.3   1 <1>  -0.3630 
 21 C        5.6510     1.9510    -0.2110 C.3   1 <1>   0.1400 
 22 C       -4.3770     3.7490    -0.1220 C.3   1 <1>   0.1200 
 23 C        6.9000     1.4210    -0.9200 C.3   1 <1>   0.1200 
 24 C       -5.4930     4.3250    -0.9880 C.3   1 <1>  -0.2400 
 25 O        7.6350     2.4900    -1.4130 O.3   1 <1>  -0.6800 
 26 H        1.2850     0.1930     0.0330 H     1 <1>   0.0800 
 27 H        1.4960    -0.9620    -1.2400 H     1 <1>   0.0800 
 28 H        0.7010    -3.8550     0.8980 H     1 <1>   0.0800 
 29 H        1.9100    -3.0050     1.8210 H     1 <1>   0.0800 
 30 H       -1.9460    -1.4780    -0.2570 H     1 <1>   0.1500 
 31 H       -0.8330     1.5880     2.4580 H     1 <1>   0.1500 
 32 H        3.1930    -0.8590     1.2370 H     1 <1>   0.0800 
 33 H        2.0340    -3.5130    -1.1480 H     1 <1>   0.0800 
 34 H        2.9460    -4.3800     0.0470 H     1 <1>   0.0800 
 35 H       -2.4900     3.0720     1.4950 H     1 <1>   0.1500 
 36 H        4.4340    -2.6290     0.3960 H     1 <1>   0.0800 
 37 H        3.9990    -2.3160    -1.2580 H     1 <1>   0.0800 
 38 H       -3.6350    -1.1660    -1.8560 H     1 <1>   0.0800 
 39 H       -3.7380     0.4680    -2.4640 H     1 <1>   0.0800 
 40 H       -4.9230    -0.1150    -1.3200 H     1 <1>   0.0800 
 41 H        4.9640     0.5630     1.2630 H     1 <1>   0.3700 
 42 H        5.9370     2.5740     0.6180 H     1 <1>   0.0800 
 43 H        5.0660     2.5340    -0.9030 H     1 <1>   0.0800 
 44 H       -3.4710     4.3170    -0.2400 H     1 <1>   0.0800 
 45 H       -4.6730     3.7240     0.9130 H     1 <1>   0.0800 
 46 H        6.6310     0.7870    -1.7480 H     1 <1>   0.0800 
 47 H        7.5260     0.8810    -0.2320 H     1 <1>   0.0800 
 48 H       -5.1940     4.3290    -2.0210 H     1 <1>   0.0800 
 49 H       -5.7030     5.3360    -0.6880 H     1 <1>   0.0800 
 50 H       -6.3880     3.7400    -0.8750 H     1 <1>   0.0800 
 51 H        7.1650     2.9090    -2.1610 H     1 <1>   0.4000 
@<TRIPOS>BOND
  1   1   2  2   
  2   1   3  2   
  3   1   4  am  
  4   1   5  1   
  5   4   6  1   
  6   4   7  1   
  7   5   8  ar  
  8   5   9  ar  
  9   6  10  1   
 10   6  26  1   
 11   6  27  1   
 12   7  11  1   
 13   7  28  1   
 14   7  29  1   
 15   8  12  ar  
 16   8  30  1   
 17   9  13  ar  
 18   9  31  1   
 19  10  14  1   
 20  10  15  1   
 21  10  32  1   
 22  11  15  1   
 23  11  33  1   
 24  11  34  1   
 25  12  16  ar  
 26  12  17  1   
 27  13  16  ar  
 28  13  35  1   
 29  14  18  2   
 30  14  19  am  
 31  15  36  1   
 32  15  37  1   
 33  16  20  1   
 34  17  38  1   
 35  17  39  1   
 36  17  40  1   
 37  19  21  1   
 38  19  41  1   
 39  20  22  1   
 40  21  23  1   
 41  21  42  1   
 42  21  43  1   
 43  22  24  1   
 44  22  44  1   
 45  22  45  1   
 46  23  25  1   
 47  23  46  1   
 48  23  47  1   
 49  24  48  1   
 50  24  49  1   
 51  24  50  1   
 52  25  51  1   
@<TRIPOS>SUBSTRUCTURE
  1 ****   6 GROUP 4 **** **** 0

# MOE 2024.06 (io_trps.svl 2023.06)
