@<TRIPOS>MOLECULE
2-(1,7-Dimethyl-2,4-dioxo-8-propyl-1,2,4,8-tetrahydro-imidazo[2,1-f]purin-3-yl)-
42 44 1 0 0 
SMALL
USER_CHARGES


@<TRIPOS>ATOM
  1 O        0.4180     0.1790    -0.3590 O.2   1 <1>  -0.5760 
  2 C        1.4200     0.8520    -0.4930 C.2   1 <1>   0.6850 
  3 N        1.3370     2.0910    -1.1130 N.am  1 <1>  -0.4270 
  4 N        2.6410     0.3860    -0.0200 N.am  1 <1>  -0.4430 
  5 C        2.4650     2.8660    -1.3240 C.2   1 <1>   0.6980 
  6 C        0.0190     2.8010    -1.0630 C.3   1 <1>   0.1920 
  7 C        3.7400     1.2140    -0.1350 C.2   1 <1>   0.4190 
  8 C        2.7320    -0.9350     0.6700 C.3   1 <1>   0.0500 
  9 O        2.3980     3.8970    -1.9750 O.2   1 <1>  -0.5760 
 10 C        3.6950     2.4140    -0.7650 C.2   1 <1>   0.2690 
 11 C       -0.1880     3.4660     0.3010 C.2   1 <1>   0.5630 
 12 N        5.0060     0.9970     0.3330 N.pl3 1 <1>  -0.7050 
 13 N        4.9890     2.9480    -0.6870 N.pl3 1 <1>  -0.6340 
 14 O        0.7560     3.6310     1.0380 O.2   1 <1>  -0.5760 
 15 N       -1.4160     3.8660     0.6880 N.am  1 <1>  -0.8040 
 16 C        5.7230     2.0720    -0.0160 C.cat 1 <1>   1.0680 
 17 C        5.8130     4.0110    -0.9980 C.2   1 <1>   0.2200 
 18 N        6.9850     2.4940     0.1300 N.pl3 1 <1>  -0.5730 
 19 C        7.0390     3.7310    -0.4990 C.2   1 <1>   0.1560 
 20 C        8.0900     1.7780     0.8090 C.3   1 <1>   0.1590 
 21 C        8.3080     4.5590    -0.5640 C.3   1 <1>  -0.1110 
 22 C        8.7590     0.8170    -0.1760 C.3   1 <1>  -0.1690 
 23 C        9.8910     0.0380     0.4990 C.3   1 <1>  -0.2480 
 24 H       -0.7800     2.1050    -1.2450 H     1 <1>   0.0700 
 25 H       -0.0230     3.5540    -1.8290 H     1 <1>   0.0700 
 26 H        1.9620    -1.5980     0.3130 H     1 <1>   0.0700 
 27 H        2.6040    -0.7980     1.7290 H     1 <1>   0.0700 
 28 H        3.6840    -1.3960     0.4780 H     1 <1>   0.0700 
 29 H        5.3550     0.2020     0.8620 H     1 <1>   0.4430 
 30 H       -1.5300     4.2980     1.6070 H     1 <1>   0.3630 
 31 H       -2.2720     3.7410     0.1460 H     1 <1>   0.3630 
 32 H        5.4640     4.8740    -1.5450 H     1 <1>   0.1410 
 33 H        7.7030     1.2290     1.6500 H     1 <1>   0.0700 
 34 H        8.8120     2.4860     1.1790 H     1 <1>   0.0700 
 35 H        8.6370     4.8150     0.4270 H     1 <1>   0.0700 
 36 H        8.1350     5.4690    -1.1110 H     1 <1>   0.0700 
 37 H        9.0870     4.0070    -1.0590 H     1 <1>   0.0700 
 38 H        9.1680     1.3730    -1.0030 H     1 <1>   0.0700 
 39 H        8.0390     0.1160    -0.5580 H     1 <1>   0.0700 
 40 H       10.6460     0.7110     0.8710 H     1 <1>   0.0700 
 41 H       10.3540    -0.6270    -0.2090 H     1 <1>   0.0700 
 42 H        9.5170    -0.5490     1.3200 H     1 <1>   0.0700 
@<TRIPOS>BOND
  1   1   2  2   
  2   2   3  am  
  3   2   4  am  
  4   3   5  am  
  5   3   6  1   
  6   4   7  1   
  7   4   8  1   
  8   5   9  2   
  9   5  10  1   
 10   6  11  1   
 11   6  24  1   
 12   6  25  1   
 13   7  10  2   
 14   7  12  1   
 15   8  26  1   
 16   8  27  1   
 17   8  28  1   
 18  10  13  1   
 19  11  14  2   
 20  11  15  am  
 21  12  16  ar  
 22  12  29  1   
 23  13  16  ar  
 24  13  17  1   
 25  15  30  1   
 26  15  31  1   
 27  16  18  ar  
 28  17  19  2   
 29  17  32  1   
 30  18  19  1   
 31  18  20  1   
 32  19  21  1   
 33  20  22  1   
 34  20  33  1   
 35  20  34  1   
 36  21  35  1   
 37  21  36  1   
 38  21  37  1   
 39  22  23  1   
 40  22  38  1   
 41  22  39  1   
 42  23  40  1   
 43  23  41  1   
 44  23  42  1   
@<TRIPOS>SUBSTRUCTURE
  1 ****  10 GROUP 4 **** **** 0

# MOE 2024.06 (io_trps.svl 2023.06)
