@<TRIPOS>MOLECULE
8-(2-Ethyl-piperidin-1-ylmethyl)-1,3-dimethyl-7-(2-methyl-benzyl)-3,7-dihydro-pu
62 65 1 0 0 
SMALL
USER_CHARGES


@<TRIPOS>ATOM
  1 O        0.2120     0.4880    -0.7420 O.2   1 <1>  -0.5700 
  2 C        1.2360     1.0660    -0.4400 C.2   1 <1>   0.6900 
  3 N        1.1740     2.2780     0.2400 N.am  1 <1>  -0.4200 
  4 N        2.4650     0.5120    -0.7650 N.am  1 <1>  -0.4360 
  5 C        2.3270     2.9210     0.6710 C.2   1 <1>   0.7030 
  6 C       -0.1650     2.8640     0.5600 C.3   1 <1>   0.0600 
  7 C        3.6060     1.1920    -0.3820 C.2   1 <1>   0.4260 
  8 C        2.5620    -0.7860    -1.4980 C.3   1 <1>   0.0600 
  9 O        2.2540     3.9030     1.3900 O.2   1 <1>  -0.5700 
 10 C        3.5950     2.3680     0.2890 C.2   1 <1>   0.2770 
 11 N        4.8970     0.8380    -0.5890 N.pl3 1 <1>  -0.7000 
 12 N        4.9340     2.7390     0.4620 N.pl3 1 <1>  -0.7640 
 13 C        5.6770     1.7800    -0.0770 C.cat 1 <1>   0.6560 
 14 C        5.3510     4.0350     1.0650 C.3   1 <1>   0.4970 
 15 C        7.2090     1.6910    -0.1680 C.3   1 <1>   0.2540 
 16 C        5.1030     5.1860     0.0880 C.ar  1 <1>  -0.1430 
 17 N        7.6410     0.3420    -0.6460 N.3   1 <1>  -0.8100 
 18 C        4.5870     6.4080     0.5230 C.ar  1 <1>  -0.1430 
 19 C        5.4070     5.0280    -1.2620 C.ar  1 <1>  -0.1500 
 20 C        8.0910    -0.5730     0.4410 C.3   1 <1>   0.1900 
 21 C        8.6790     0.4960    -1.6870 C.3   1 <1>   0.1100 
 22 C        4.3720     7.4260    -0.3940 C.ar  1 <1>  -0.1500 
 23 C        4.2450     6.6870     1.9820 C.3   1 <1>  -0.0970 
 24 C        5.1910     6.0510    -2.1660 C.ar  1 <1>  -0.1500 
 25 C        8.4430    -1.9480    -0.1630 C.3   1 <1>  -0.1600 
 26 C        7.0060    -0.7350     1.5330 C.3   1 <1>  -0.1600 
 27 C        8.9860    -0.8480    -2.3420 C.3   1 <1>  -0.1600 
 28 C        4.6700     7.2520    -1.7320 C.ar  1 <1>  -0.1500 
 29 C        9.4660    -1.8540    -1.2980 C.3   1 <1>  -0.1600 
 30 C        7.4310    -1.6270     2.7100 C.3   1 <1>  -0.2400 
 31 H       -0.5440     2.4240     1.4660 H     1 <1>   0.0800 
 32 H       -0.8590     2.6680    -0.2400 H     1 <1>   0.0800 
 33 H       -0.0950     3.9310     0.6890 H     1 <1>   0.0800 
 34 H        1.6260    -1.0280    -1.9730 H     1 <1>   0.0800 
 35 H        2.8100    -1.5740    -0.8090 H     1 <1>   0.0800 
 36 H        3.3180    -0.7260    -2.2610 H     1 <1>   0.0800 
 37 H        5.3030     0.0100    -1.0390 H     1 <1>   0.4500 
 38 H        6.3970     4.0100     1.3150 H     1 <1>   0.0800 
 39 H        4.8010     4.1790     1.9790 H     1 <1>   0.0800 
 40 H        7.6560     1.9130     0.7840 H     1 <1>   0.0800 
 41 H        7.5290     2.4510    -0.8590 H     1 <1>   0.0800 
 42 H        5.8150     4.1100    -1.6390 H     1 <1>   0.1500 
 43 H        8.9800    -0.1640     0.8940 H     1 <1>   0.0800 
 44 H        9.5790     0.9030    -1.2540 H     1 <1>   0.0800 
 45 H        8.3350     1.1720    -2.4530 H     1 <1>   0.0800 
 46 H        3.9680     8.3710    -0.0740 H     1 <1>   0.1500 
 47 H        5.0820     6.4660     2.6180 H     1 <1>   0.0800 
 48 H        3.3990     6.0980     2.2870 H     1 <1>   0.0800 
 49 H        3.9910     7.7230     2.1250 H     1 <1>   0.0800 
 50 H        5.4260     5.9170    -3.2080 H     1 <1>   0.1500 
 51 H        7.5460    -2.4140    -0.5300 H     1 <1>   0.0800 
 52 H        8.8570    -2.5890     0.5950 H     1 <1>   0.0800 
 53 H        6.1150    -1.1490     1.0970 H     1 <1>   0.0800 
 54 H        6.7640     0.2190     1.9600 H     1 <1>   0.0800 
 55 H        9.7480    -0.7170    -3.0910 H     1 <1>   0.0800 
 56 H        8.1020    -1.2170    -2.8320 H     1 <1>   0.0800 
 57 H        4.4970     8.0520    -2.4310 H     1 <1>   0.1500 
 58 H        9.6020    -2.8200    -1.7530 H     1 <1>   0.0800 
 59 H       10.4140    -1.5350    -0.9010 H     1 <1>   0.0800 
 60 H        7.5170    -2.6560     2.4090 H     1 <1>   0.0800 
 61 H        6.6940    -1.5770     3.4920 H     1 <1>   0.0800 
 62 H        8.3750    -1.3020     3.1130 H     1 <1>   0.0800 
@<TRIPOS>BOND
  1   1   2  2   
  2   2   3  am  
  3   2   4  am  
  4   3   5  am  
  5   3   6  1   
  6   4   7  1   
  7   4   8  1   
  8   5   9  2   
  9   5  10  1   
 10   6  31  1   
 11   6  32  1   
 12   6  33  1   
 13   7  10  2   
 14   7  11  1   
 15   8  34  1   
 16   8  35  1   
 17   8  36  1   
 18  10  12  1   
 19  11  13  ar  
 20  11  37  1   
 21  12  13  ar  
 22  12  14  1   
 23  13  15  1   
 24  14  16  1   
 25  14  38  1   
 26  14  39  1   
 27  15  17  1   
 28  15  40  1   
 29  15  41  1   
 30  16  18  ar  
 31  16  19  ar  
 32  17  20  1   
 33  17  21  1   
 34  18  22  ar  
 35  18  23  1   
 36  19  24  ar  
 37  19  42  1   
 38  20  25  1   
 39  20  26  1   
 40  20  43  1   
 41  21  27  1   
 42  21  44  1   
 43  21  45  1   
 44  22  28  ar  
 45  22  46  1   
 46  23  47  1   
 47  23  48  1   
 48  23  49  1   
 49  24  28  ar  
 50  24  50  1   
 51  25  29  1   
 52  25  51  1   
 53  25  52  1   
 54  26  30  1   
 55  26  53  1   
 56  26  54  1   
 57  27  29  1   
 58  27  55  1   
 59  27  56  1   
 60  28  57  1   
 61  29  58  1   
 62  29  59  1   
 63  30  60  1   
 64  30  61  1   
 65  30  62  1   
@<TRIPOS>SUBSTRUCTURE
  1 ****  12 GROUP 4 **** **** 0

# MOE 2024.06 (io_trps.svl 2023.06)
