@<TRIPOS>MOLECULE
1-[1-(2-Fluoro-phenyl)-ethyl]-1H-[1,2,3]triazole-4-carboxylic acid (2-dimethylam
43 44 1 0 0 
SMALL
USER_CHARGES


@<TRIPOS>ATOM
  1 F        1.0310    -1.7090    -2.6900 F     1 <1>  -0.1900 
  2 C        1.1080    -1.3040    -1.4490 C.ar  1 <1>   0.1900 
  3 C        0.5510    -2.0790    -0.4420 C.ar  1 <1>  -0.1440 
  4 C        1.7510    -0.1060    -1.2020 C.ar  1 <1>  -0.1500 
  5 C        0.6570    -1.6090     0.8620 C.ar  1 <1>  -0.1500 
  6 C       -0.1540    -3.3980    -0.7540 C.3   1 <1>   0.3190 
  7 C        1.8460     0.3430     0.1030 C.ar  1 <1>  -0.1500 
  8 C        1.2990    -0.4100     1.1310 C.ar  1 <1>  -0.1500 
  9 N       -1.5470    -3.3730    -0.2170 N.pl3 1 <1>   0.3140 
 10 C        0.6610    -4.5900    -0.2250 C.3   1 <1>  -0.2400 
 11 N       -1.9240    -3.9070     0.9550 N.2   1 <1>  -0.4180 
 12 C       -2.6080    -2.8160    -0.7950 C.2   1 <1>  -0.3020 
 13 N       -3.1790    -3.6990     1.1160 N.2   1 <1>  -0.2270 
 14 C       -3.6480    -3.0200     0.0480 C.2   1 <1>   0.1410 
 15 C       -5.0350    -2.6230    -0.0720 C.2   1 <1>   0.7160 
 16 O       -5.4430    -1.9740    -1.0200 O.2   1 <1>  -0.5700 
 17 N       -5.9360    -2.9440     0.9060 N.am  1 <1>  -0.7300 
 18 C       -7.4250    -2.9270     0.8060 C.3   1 <1>   0.1400 
 19 C       -8.0180    -1.5210     1.0380 C.3   1 <1>   0.3430 
 20 N       -7.6090    -0.5590    -0.0320 N.4   1 <1>  -0.9590 
 21 C       -7.5160     0.8420     0.4700 C.3   1 <1>   0.2630 
 22 C       -8.4700    -0.6530    -1.2490 C.3   1 <1>   0.2630 
 23 H        2.1680     0.4610    -2.0150 H     1 <1>   0.1500 
 24 H        0.2380    -2.1740     1.6800 H     1 <1>   0.1500 
 25 H       -0.2430    -3.5170    -1.8180 H     1 <1>   0.0800 
 26 H        2.3420     1.2730     0.3210 H     1 <1>   0.1500 
 27 H        1.3720    -0.0600     2.1470 H     1 <1>   0.1500 
 28 H        0.7840    -4.5260     0.8410 H     1 <1>   0.0800 
 29 H        1.6350    -4.5920    -0.6790 H     1 <1>   0.0800 
 30 H        0.1680    -5.5150    -0.4690 H     1 <1>   0.0800 
 31 H       -2.5840    -2.3110    -1.7430 H     1 <1>   0.1500 
 32 H       -5.5440    -3.5100     1.6710 H     1 <1>   0.3700 
 33 H       -7.8240    -3.5990     1.5470 H     1 <1>   0.0800 
 34 H       -7.7250    -3.2960    -0.1610 H     1 <1>   0.0800 
 35 H       -7.6720    -1.1690     1.9960 H     1 <1>   0.0800 
 36 H       -9.0930    -1.5830     1.0780 H     1 <1>   0.0800 
 37 H       -6.6550    -0.8640    -0.3340 H     1 <1>   0.4500 
 38 H       -8.4840     1.1910     0.7910 H     1 <1>   0.0800 
 39 H       -7.1540     1.4930    -0.3090 H     1 <1>   0.0800 
 40 H       -6.8330     0.8940     1.3030 H     1 <1>   0.0800 
 41 H       -9.4870    -0.3850    -1.0140 H     1 <1>   0.0800 
 42 H       -8.4540    -1.6580    -1.6400 H     1 <1>   0.0800 
 43 H       -8.1030     0.0120    -2.0140 H     1 <1>   0.0800 
@<TRIPOS>BOND
  1   1   2  1   
  2   2   3  ar  
  3   2   4  ar  
  4   3   5  ar  
  5   3   6  1   
  6   4   7  ar  
  7   4  23  1   
  8   5   8  ar  
  9   5  24  1   
 10   6   9  1   
 11   6  10  1   
 12   6  25  1   
 13   7   8  ar  
 14   7  26  1   
 15   8  27  1   
 16   9  11  1   
 17   9  12  1   
 18  10  28  1   
 19  10  29  1   
 20  10  30  1   
 21  11  13  2   
 22  12  14  2   
 23  12  31  1   
 24  13  14  1   
 25  14  15  1   
 26  15  16  2   
 27  15  17  am  
 28  17  18  1   
 29  17  32  1   
 30  18  19  1   
 31  18  33  1   
 32  18  34  1   
 33  19  20  1   
 34  19  35  1   
 35  19  36  1   
 36  20  21  1   
 37  20  22  1   
 38  20  37  1   
 39  21  38  1   
 40  21  39  1   
 41  21  40  1   
 42  22  41  1   
 43  22  42  1   
 44  22  43  1   
@<TRIPOS>SUBSTRUCTURE
  1 ****  12 GROUP 4 **** **** 0

# MOE 2024.06 (io_trps.svl 2023.06)
