@<TRIPOS>MOLECULE
1-(2-Methoxy-benzyl)-piperidine-2-carboxylic acid
37 38 1 0 0 
SMALL
USER_CHARGES


@<TRIPOS>ATOM
  1 O        0.6810     1.2610     1.7060 O.co2 1 <1>  -0.9000 
  2 C        1.5040     1.3360     0.7940 C.2   1 <1>   0.9060 
  3 O        1.5950     2.3130     0.0350 O.co2 1 <1>  -0.9000 
  4 C        2.5690     0.2230     0.6390 C.3   1 <1>   0.3170 
  5 N        3.8930     0.7450     0.1060 N.4   1 <1>  -0.9590 
  6 C        2.0480    -0.8840    -0.2930 C.3   1 <1>  -0.1600 
  7 C        4.9270    -0.2840    -0.1570 C.3   1 <1>   0.3430 
  8 C        4.4010     1.8470     0.9650 C.3   1 <1>   0.4860 
  9 C        3.0900    -1.9780    -0.5570 C.3   1 <1>  -0.1600 
 10 C        4.3810    -1.3550    -1.0990 C.3   1 <1>  -0.1600 
 11 C        5.3820     2.6640     0.1530 C.ar  1 <1>  -0.1430 
 12 C        6.7510     2.4640     0.2850 C.ar  1 <1>   0.0830 
 13 C        4.8990     3.6190    -0.7270 C.ar  1 <1>  -0.1500 
 14 O        7.1620     1.5090     1.1600 O.3   1 <1>  -0.3630 
 15 C        7.6310     3.2310    -0.4760 C.ar  1 <1>  -0.1500 
 16 C        5.7770     4.3770    -1.4810 C.ar  1 <1>  -0.1500 
 17 C        8.5240     1.3780     1.5090 C.3   1 <1>   0.0400 
 18 C        7.1420     4.1820    -1.3550 C.ar  1 <1>  -0.1500 
 19 H        2.7220    -0.1960     1.6170 H     1 <1>   0.0800 
 20 H        3.6240     1.2270    -0.7650 H     1 <1>   0.4500 
 21 H        1.7400    -0.4380    -1.2240 H     1 <1>   0.0800 
 22 H        1.1710    -1.3220     0.1530 H     1 <1>   0.0800 
 23 H        5.2230    -0.7390     0.7740 H     1 <1>   0.0800 
 24 H        5.7970     0.1770    -0.5980 H     1 <1>   0.0800 
 25 H        4.8740     1.4510     1.8470 H     1 <1>   0.0800 
 26 H        3.5910     2.4910     1.2690 H     1 <1>   0.0800 
 27 H        2.6990    -2.6870    -1.2670 H     1 <1>   0.0800 
 28 H        3.2970    -2.5060     0.3590 H     1 <1>   0.0800 
 29 H        5.1240    -2.1220    -1.2250 H     1 <1>   0.0800 
 30 H        4.2000    -0.9160    -2.0650 H     1 <1>   0.0800 
 31 H        3.8340     3.7790    -0.8260 H     1 <1>   0.1500 
 32 H        8.6940     3.1040    -0.4030 H     1 <1>   0.1500 
 33 H        5.3970     5.1190    -2.1620 H     1 <1>   0.1500 
 34 H        8.6060     0.6250     2.2730 H     1 <1>   0.0800 
 35 H        8.8810     2.3200     1.8890 H     1 <1>   0.0800 
 36 H        9.0830     1.0780     0.6410 H     1 <1>   0.0800 
 37 H        7.8220     4.7740    -1.9420 H     1 <1>   0.1500 
@<TRIPOS>BOND
  1   1   2  ar  
  2   2   3  ar  
  3   2   4  1   
  4   4   5  1   
  5   4   6  1   
  6   4  19  1   
  7   5   7  1   
  8   5   8  1   
  9   5  20  1   
 10   6   9  1   
 11   6  21  1   
 12   6  22  1   
 13   7  10  1   
 14   7  23  1   
 15   7  24  1   
 16   8  11  1   
 17   8  25  1   
 18   8  26  1   
 19   9  10  1   
 20   9  27  1   
 21   9  28  1   
 22  10  29  1   
 23  10  30  1   
 24  11  12  ar  
 25  11  13  ar  
 26  12  14  1   
 27  12  15  ar  
 28  13  16  ar  
 29  13  31  1   
 30  14  17  1   
 31  15  18  ar  
 32  15  32  1   
 33  16  18  ar  
 34  16  33  1   
 35  17  34  1   
 36  17  35  1   
 37  17  36  1   
 38  18  37  1   
@<TRIPOS>SUBSTRUCTURE
  1 ****   8 GROUP 4 **** **** 0

# MOE 2024.06 (io_trps.svl 2023.06)
