@<TRIPOS>MOLECULE
1-(2,4-Dimethyl-phenyl)-5-oxo-pyrrolidine-3-carboxylic acid (5-chloro-2-methoxy-
47 49 1 0 0 
SMALL
USER_CHARGES


@<TRIPOS>ATOM
  1 CL       2.8130    -1.4110    -2.0730 Cl    1 <1>  -0.1770 
  2 C        2.7440    -0.0120    -1.0320 C.ar  1 <1>   0.1770 
  3 C        2.6180     1.2420    -1.5970 C.ar  1 <1>  -0.1500 
  4 C        2.8110    -0.1860     0.3380 C.ar  1 <1>  -0.1500 
  5 C        2.5530     2.3660    -0.7850 C.ar  1 <1>   0.1170 
  6 C        2.7600     0.9280     1.1590 C.ar  1 <1>  -0.1500 
  7 N        2.3910     3.6230    -1.3920 N.am  1 <1>  -0.5470 
  8 C        2.6460     2.1930     0.6050 C.ar  1 <1>   0.0830 
  9 C        1.4320     4.5740    -1.2320 C.2   1 <1>   0.5690 
 10 O        2.6100     3.2480     1.4510 O.3   1 <1>  -0.3630 
 11 O        1.5710     5.6260    -1.8020 O.2   1 <1>  -0.5700 
 12 C        0.1880     4.3380    -0.3740 C.3   1 <1>  -0.0190 
 13 C        3.8040     3.9890     1.5730 C.3   1 <1>   0.0400 
 14 C       -0.5050     3.0000    -0.6650 C.3   1 <1>   0.1400 
 15 C       -0.9250     5.3920    -0.5300 C.3   1 <1>  -0.0990 
 16 N       -1.9330     3.2600    -0.4260 N.am  1 <1>  -0.4770 
 17 C       -2.1830     4.5950    -0.3340 C.2   1 <1>   0.5690 
 18 C       -2.8280     2.1900    -0.2780 C.ar  1 <1>   0.1170 
 19 O       -3.2480     5.1190    -0.1190 O.2   1 <1>  -0.5700 
 20 C       -3.3810     1.8510     0.9580 C.ar  1 <1>  -0.1430 
 21 C       -3.1560     1.4300    -1.3930 C.ar  1 <1>  -0.1500 
 22 C       -4.2390     0.7660     1.0510 C.ar  1 <1>  -0.1500 
 23 C       -3.0630     2.6530     2.2130 C.3   1 <1>  -0.0970 
 24 C       -4.0110     0.3480    -1.2910 C.ar  1 <1>  -0.1500 
 25 C       -4.5560     0.0090    -0.0650 C.ar  1 <1>  -0.1430 
 26 C       -5.4980    -1.1740     0.0570 C.3   1 <1>  -0.0970 
 27 H        2.5630     1.3360    -2.6660 H     1 <1>   0.1500 
 28 H        2.9020    -1.1750     0.7510 H     1 <1>   0.1500 
 29 H        2.8110     0.8190     2.2280 H     1 <1>   0.1500 
 30 H        3.1050     3.9010    -2.0670 H     1 <1>   0.3700 
 31 H        0.4860     4.3350     0.6580 H     1 <1>   0.0800 
 32 H        3.6520     4.7540     2.3140 H     1 <1>   0.0800 
 33 H        4.0410     4.4400     0.6260 H     1 <1>   0.0800 
 34 H        4.5950     3.3290     1.8840 H     1 <1>   0.0800 
 35 H       -0.1530     2.2200    -0.0120 H     1 <1>   0.0800 
 36 H       -0.3700     2.7080    -1.6920 H     1 <1>   0.0800 
 37 H       -0.9480     5.8130    -1.5190 H     1 <1>   0.0800 
 38 H       -0.8430     6.1760     0.2000 H     1 <1>   0.0800 
 39 H       -2.7420     1.6930    -2.3480 H     1 <1>   0.1500 
 40 H       -4.6690     0.5060     2.0010 H     1 <1>   0.1500 
 41 H       -2.0010     2.7860     2.3110 H     1 <1>   0.0800 
 42 H       -3.4250     2.1550     3.0940 H     1 <1>   0.0800 
 43 H       -3.5310     3.6200     2.1520 H     1 <1>   0.0800 
 44 H       -4.2520    -0.2240    -2.1690 H     1 <1>   0.1500 
 45 H       -6.5160    -0.8350    -0.0130 H     1 <1>   0.0800 
 46 H       -5.3600    -1.6660     1.0030 H     1 <1>   0.0800 
 47 H       -5.3140    -1.8880    -0.7260 H     1 <1>   0.0800 
@<TRIPOS>BOND
  1   1   2  1   
  2   2   3  ar  
  3   2   4  ar  
  4   3   5  ar  
  5   3  27  1   
  6   4   6  ar  
  7   4  28  1   
  8   5   7  1   
  9   5   8  ar  
 10   6   8  ar  
 11   6  29  1   
 12   7   9  am  
 13   7  30  1   
 14   8  10  1   
 15   9  11  2   
 16   9  12  1   
 17  10  13  1   
 18  12  14  1   
 19  12  15  1   
 20  12  31  1   
 21  13  32  1   
 22  13  33  1   
 23  13  34  1   
 24  14  16  1   
 25  14  35  1   
 26  14  36  1   
 27  15  17  1   
 28  15  37  1   
 29  15  38  1   
 30  16  17  am  
 31  16  18  1   
 32  17  19  2   
 33  18  20  ar  
 34  18  21  ar  
 35  20  22  ar  
 36  20  23  1   
 37  21  24  ar  
 38  21  39  1   
 39  22  25  ar  
 40  22  40  1   
 41  23  41  1   
 42  23  42  1   
 43  23  43  1   
 44  24  25  ar  
 45  24  44  1   
 46  25  26  1   
 47  26  45  1   
 48  26  46  1   
 49  26  47  1   
@<TRIPOS>SUBSTRUCTURE
  1 ****  14 GROUP 4 **** **** 0

# MOE 2024.06 (io_trps.svl 2023.06)
