@<TRIPOS>MOLECULE
[4-(4-Ethyl-piperazine-1-sulfonyl)-2-methyl-phenoxy]-acetic acid methyl ester
49 50 1 0 0 
SMALL
USER_CHARGES


@<TRIPOS>ATOM
  1 S        0.5420    -1.5810     2.0840 S.o2  1 <1>   1.4470 
  2 O        0.0970    -1.6360     3.4570 O.2   1 <1>  -0.6500 
  3 O        0.6870    -2.8020     1.3220 O.2   1 <1>  -0.6500 
  4 N       -0.6520    -0.7040     1.2530 N.am  1 <1>  -0.8490 
  5 C        2.0050    -0.5250     1.9180 C.ar  1 <1>  -0.0090 
  6 C       -1.9810    -1.2950     1.4880 C.3   1 <1>   0.1960 
  7 C       -0.3600    -0.5880    -0.1890 C.3   1 <1>   0.1960 
  8 C        3.1360    -0.9630     1.2370 C.ar  1 <1>  -0.1500 
  9 C        2.0100     0.7650     2.4360 C.ar  1 <1>  -0.1500 
 10 C       -3.0980    -0.5120     0.7670 C.3   1 <1>   0.3430 
 11 C       -1.4510     0.2160    -0.9300 C.3   1 <1>   0.3430 
 12 C        4.2310    -0.1370     1.0410 C.ar  1 <1>  -0.1440 
 13 C        3.0920     1.6040     2.2480 C.ar  1 <1>  -0.1500 
 14 N       -2.8290    -0.3570    -0.7110 N.4   1 <1>  -0.9590 
 15 C        4.1930     1.1620     1.5310 C.ar  1 <1>   0.0830 
 16 C        5.4500    -0.6480     0.2860 C.3   1 <1>  -0.0970 
 17 C       -3.8590     0.4730    -1.3900 C.3   1 <1>   0.3430 
 18 O        5.2290     1.9960     1.2950 O.3   1 <1>  -0.3620 
 19 C       -5.1700    -0.3000    -1.4720 C.3   1 <1>  -0.2400 
 20 C        4.9600     3.1560     0.5190 C.3   1 <1>   0.1810 
 21 C        4.4810     2.8010    -0.8840 C.2   1 <1>   0.6590 
 22 O        3.3090     2.7880    -1.1760 O.2   1 <1>  -0.5700 
 23 O        5.4300     2.5220    -1.7730 O.3   1 <1>  -0.4300 
 24 C        5.1250     2.1840    -3.1100 C.3   1 <1>   0.0400 
 25 H       -2.1940    -1.2900     2.5450 H     1 <1>   0.0800 
 26 H       -1.9900    -2.3230     1.1620 H     1 <1>   0.0800 
 27 H       -0.2770    -1.5660    -0.6340 H     1 <1>   0.0800 
 28 H        0.5830    -0.0850    -0.3270 H     1 <1>   0.0800 
 29 H        3.1560    -1.9680     0.8500 H     1 <1>   0.1500 
 30 H        1.1550     1.1160     2.9890 H     1 <1>   0.1500 
 31 H       -3.1740     0.4610     1.2240 H     1 <1>   0.0800 
 32 H       -4.0340    -1.0220     0.9190 H     1 <1>   0.0800 
 33 H       -1.2220     0.2300    -1.9830 H     1 <1>   0.0800 
 34 H       -1.4200     1.2320    -0.5720 H     1 <1>   0.0800 
 35 H        3.0800     2.5970     2.6590 H     1 <1>   0.1500 
 36 H       -2.8500    -1.2950    -1.1340 H     1 <1>   0.4500 
 37 H        5.3840    -1.7070     0.1120 H     1 <1>   0.0800 
 38 H        6.3410    -0.4530     0.8560 H     1 <1>   0.0800 
 39 H        5.5320    -0.1470    -0.6610 H     1 <1>   0.0800 
 40 H       -3.5330     0.7100    -2.3910 H     1 <1>   0.0800 
 41 H       -4.0060     1.3990    -0.8560 H     1 <1>   0.0800 
 42 H       -5.0340    -1.2350    -1.9870 H     1 <1>   0.0800 
 43 H       -5.8840     0.2810    -2.0290 H     1 <1>   0.0800 
 44 H       -5.5870    -0.4770    -0.4980 H     1 <1>   0.0800 
 45 H        5.8710     3.7200     0.4530 H     1 <1>   0.0800 
 46 H        4.2180     3.7460     1.0210 H     1 <1>   0.0800 
 47 H        6.0470     2.0160    -3.6380 H     1 <1>   0.0800 
 48 H        4.5820     2.9970    -3.5600 H     1 <1>   0.0800 
 49 H        4.5270     1.2900    -3.1140 H     1 <1>   0.0800 
@<TRIPOS>BOND
  1   1   2  2   
  2   1   3  2   
  3   1   4  am  
  4   1   5  1   
  5   4   6  1   
  6   4   7  1   
  7   5   8  ar  
  8   5   9  ar  
  9   6  10  1   
 10   6  25  1   
 11   6  26  1   
 12   7  11  1   
 13   7  27  1   
 14   7  28  1   
 15   8  12  ar  
 16   8  29  1   
 17   9  13  ar  
 18   9  30  1   
 19  10  14  1   
 20  10  31  1   
 21  10  32  1   
 22  11  14  1   
 23  11  33  1   
 24  11  34  1   
 25  12  15  ar  
 26  12  16  1   
 27  13  15  ar  
 28  13  35  1   
 29  14  17  1   
 30  14  36  1   
 31  15  18  1   
 32  16  37  1   
 33  16  38  1   
 34  16  39  1   
 35  17  19  1   
 36  17  40  1   
 37  17  41  1   
 38  18  20  1   
 39  19  42  1   
 40  19  43  1   
 41  19  44  1   
 42  20  21  1   
 43  20  45  1   
 44  20  46  1   
 45  21  22  2   
 46  21  23  1   
 47  23  24  1   
 48  24  47  1   
 49  24  48  1   
 50  24  49  1   
@<TRIPOS>SUBSTRUCTURE
  1 ****   5 GROUP 4 **** **** 0

# MOE 2024.06 (io_trps.svl 2023.06)
