@<TRIPOS>MOLECULE
2-(4-Benzyl-piperazin-1-yl)-N-(2-cyano-phenyl)-acetamide
48 50 1 0 0 
SMALL
USER_CHARGES


@<TRIPOS>ATOM
  1 O        0.4150    -0.9460     2.9890 O.2   1 <1>  -0.5700 
  2 C        0.5270    -1.7770     2.1220 C.2   1 <1>   0.5690 
  3 N       -0.4750    -2.0500     1.2280 N.am  1 <1>  -0.5470 
  4 C        1.8460    -2.5540     1.9870 C.3   1 <1>   0.1710 
  5 C       -1.6700    -1.3410     1.0160 C.ar  1 <1>   0.1170 
  6 N        2.8310    -1.9840     1.0130 N.3   1 <1>  -0.8100 
  7 C       -2.0320    -0.9160    -0.2680 C.ar  1 <1>   0.0730 
  8 C       -2.5160    -1.0630     2.0840 C.ar  1 <1>  -0.1500 
  9 C        4.0890    -2.7650     0.9650 C.3   1 <1>   0.1100 
 10 C        2.2830    -1.7510    -0.3480 C.3   1 <1>   0.1100 
 11 C       -1.1480    -1.1470    -1.3720 C.1   1 <1>   0.4840 
 12 C       -3.2390    -0.2500    -0.4520 C.ar  1 <1>  -0.1500 
 13 C       -3.7110    -0.3970     1.8900 C.ar  1 <1>  -0.1500 
 14 C        5.1650    -2.0930     0.0740 C.3   1 <1>   0.3430 
 15 C        3.3390    -1.2390    -1.3560 C.3   1 <1>   0.3430 
 16 N       -0.3620    -1.3630    -2.1730 N.1   1 <1>  -0.5570 
 17 C       -4.0760     0.0070     0.6180 C.ar  1 <1>  -0.1500 
 18 N        4.6130    -0.8990    -0.6520 N.4   1 <1>  -0.9590 
 19 C        5.6050    -0.1920    -1.5010 C.3   1 <1>   0.4860 
 20 C        6.8060     0.1800    -0.6520 C.ar  1 <1>  -0.1430 
 21 C        8.0150    -0.4780    -0.8310 C.ar  1 <1>  -0.1500 
 22 C        6.7040     1.1710     0.3150 C.ar  1 <1>  -0.1500 
 23 C        9.1060    -0.1560    -0.0440 C.ar  1 <1>  -0.1500 
 24 C        7.7970     1.4910     1.1010 C.ar  1 <1>  -0.1500 
 25 C        8.9970     0.8270     0.9230 C.ar  1 <1>  -0.1500 
 26 H       -0.2690    -2.7780     0.5460 H     1 <1>   0.3700 
 27 H        1.6180    -3.5690     1.7170 H     1 <1>   0.0800 
 28 H        2.3010    -2.5740     2.9620 H     1 <1>   0.0800 
 29 H       -2.2320    -1.3700     3.0770 H     1 <1>   0.1500 
 30 H        3.8900    -3.7550     0.5920 H     1 <1>   0.0800 
 31 H        4.4860    -2.8690     1.9610 H     1 <1>   0.0800 
 32 H        1.5130    -1.0020    -0.2840 H     1 <1>   0.0800 
 33 H        1.8380    -2.6520    -0.7350 H     1 <1>   0.0800 
 34 H       -3.5280     0.0760    -1.4370 H     1 <1>   0.1500 
 35 H       -4.3550    -0.1910     2.7280 H     1 <1>   0.1500 
 36 H        5.5450    -2.8150    -0.6300 H     1 <1>   0.0800 
 37 H        5.9880    -1.7870     0.7000 H     1 <1>   0.0800 
 38 H        2.9440    -0.3740    -1.8640 H     1 <1>   0.0800 
 39 H        3.5190    -2.0010    -2.0970 H     1 <1>   0.0800 
 40 H       -5.0090     0.5240     0.4670 H     1 <1>   0.1500 
 41 H        4.3290    -0.2700     0.1140 H     1 <1>   0.4500 
 42 H        5.1690     0.7040    -1.9140 H     1 <1>   0.0800 
 43 H        5.9170    -0.8260    -2.3140 H     1 <1>   0.0800 
 44 H        8.1250    -1.2430    -1.5800 H     1 <1>   0.1500 
 45 H        5.7820     1.7050     0.4690 H     1 <1>   0.1500 
 46 H       10.0450    -0.6650    -0.1820 H     1 <1>   0.1500 
 47 H        7.7180     2.2600     1.8510 H     1 <1>   0.1500 
 48 H        9.8470     1.0790     1.5350 H     1 <1>   0.1500 
@<TRIPOS>BOND
  1   1   2  2   
  2   2   3  am  
  3   2   4  1   
  4   3   5  1   
  5   3  26  1   
  6   4   6  1   
  7   4  27  1   
  8   4  28  1   
  9   5   7  ar  
 10   5   8  ar  
 11   6   9  1   
 12   6  10  1   
 13   7  11  1   
 14   7  12  ar  
 15   8  13  ar  
 16   8  29  1   
 17   9  14  1   
 18   9  30  1   
 19   9  31  1   
 20  10  15  1   
 21  10  32  1   
 22  10  33  1   
 23  11  16  3   
 24  12  17  ar  
 25  12  34  1   
 26  13  17  ar  
 27  13  35  1   
 28  14  18  1   
 29  14  36  1   
 30  14  37  1   
 31  15  18  1   
 32  15  38  1   
 33  15  39  1   
 34  17  40  1   
 35  18  19  1   
 36  18  41  1   
 37  19  20  1   
 38  19  42  1   
 39  19  43  1   
 40  20  21  ar  
 41  20  22  ar  
 42  21  23  ar  
 43  21  44  1   
 44  22  24  ar  
 45  22  45  1   
 46  23  25  ar  
 47  23  46  1   
 48  24  25  ar  
 49  24  47  1   
 50  25  48  1   
@<TRIPOS>SUBSTRUCTURE
  1 ****  10 GROUP 4 **** **** 0

# MOE 2024.06 (io_trps.svl 2023.06)
