@<TRIPOS>MOLECULE
1,3,6,7-Tetramethyl-8-propyl-1H,8H-imidazo[2,1-f]purine-2,4-dione
41 43 1 0 0 
SMALL
USER_CHARGES


@<TRIPOS>ATOM
  1 O        0.7710    -0.0660    -0.0130 O.2   1 <1>  -0.5760 
  2 C        1.7240     0.6850    -0.0470 C.2   1 <1>   0.6850 
  3 N        1.5270     2.0630    -0.0470 N.am  1 <1>  -0.4270 
  4 N        3.0130     0.1650    -0.0750 N.am  1 <1>  -0.4430 
  5 C        2.6010     2.9450    -0.0080 C.2   1 <1>   0.6990 
  6 C        0.1290     2.5970    -0.0450 C.3   1 <1>   0.0500 
  7 C        4.0730     1.0480    -0.0390 C.2   1 <1>   0.4190 
  8 C        3.2350    -1.3120    -0.1050 C.3   1 <1>   0.0500 
  9 O        2.4140     4.1500     0.0300 O.2   1 <1>  -0.5760 
 10 C        3.9180     2.3940    -0.0070 C.2   1 <1>   0.2690 
 11 N        5.4030     0.7450    -0.0240 N.pl3 1 <1>  -0.7040 
 12 N        5.2160     2.9340     0.0270 N.pl3 1 <1>  -0.6340 
 13 C        6.0620     1.9110     0.0160 C.cat 1 <1>   1.0690 
 14 C        5.9750     4.0820     0.0710 C.2   1 <1>   0.2330 
 15 N        7.3400     2.3200     0.0500 N.pl3 1 <1>  -0.5730 
 16 C        7.2760     3.7070     0.0840 C.2   1 <1>   0.1560 
 17 C        5.3140     5.4470     0.0940 C.3   1 <1>  -0.1110 
 18 C        8.6150     1.5460     0.0530 C.3   1 <1>   0.1590 
 19 C        8.5320     4.5630     0.1290 C.3   1 <1>  -0.1110 
 20 C        8.4110     0.0270     0.0120 C.3   1 <1>  -0.1690 
 21 C        9.7580    -0.7010     0.0180 C.3   1 <1>  -0.2480 
 22 H       -0.5170     1.9570    -0.6210 H     1 <1>   0.0700 
 23 H        0.0930     3.5830    -0.4750 H     1 <1>   0.0700 
 24 H       -0.2370     2.6410     0.9660 H     1 <1>   0.0700 
 25 H        2.3830    -1.8130    -0.5330 H     1 <1>   0.0700 
 26 H        3.3780    -1.6770     0.8970 H     1 <1>   0.0700 
 27 H        4.0960    -1.5520    -0.7030 H     1 <1>   0.0700 
 28 H        5.8480    -0.1690    -0.0300 H     1 <1>   0.4430 
 29 H        4.6820     5.5350     0.9600 H     1 <1>   0.0700 
 30 H        4.7100     5.5780    -0.7850 H     1 <1>   0.0700 
 31 H        6.0470     6.2320     0.1250 H     1 <1>   0.0700 
 32 H        9.1710     1.8000     0.9400 H     1 <1>   0.0700 
 33 H        9.2010     1.8430    -0.8010 H     1 <1>   0.0700 
 34 H        9.1060     4.3340     1.0090 H     1 <1>   0.0700 
 35 H        8.2850     5.6080     0.1510 H     1 <1>   0.0700 
 36 H        9.1380     4.3790    -0.7400 H     1 <1>   0.0700 
 37 H        7.8870    -0.2490    -0.8860 H     1 <1>   0.0700 
 38 H        7.8570    -0.2920     0.8780 H     1 <1>   0.0700 
 39 H       10.3460    -0.4230    -0.8410 H     1 <1>   0.0700 
 40 H        9.6040    -1.7660    -0.0110 H     1 <1>   0.0700 
 41 H       10.3160    -0.4660     0.9080 H     1 <1>   0.0700 
@<TRIPOS>BOND
  1   1   2  2   
  2   2   3  am  
  3   2   4  am  
  4   3   5  am  
  5   3   6  1   
  6   4   7  1   
  7   4   8  1   
  8   5   9  2   
  9   5  10  1   
 10   6  22  1   
 11   6  23  1   
 12   6  24  1   
 13   7  10  2   
 14   7  11  1   
 15   8  25  1   
 16   8  26  1   
 17   8  27  1   
 18  10  12  1   
 19  11  13  ar  
 20  11  28  1   
 21  12  13  ar  
 22  12  14  1   
 23  13  15  ar  
 24  14  16  2   
 25  14  17  1   
 26  15  16  1   
 27  15  18  1   
 28  16  19  1   
 29  17  29  1   
 30  17  30  1   
 31  17  31  1   
 32  18  20  1   
 33  18  32  1   
 34  18  33  1   
 35  19  34  1   
 36  19  35  1   
 37  19  36  1   
 38  20  21  1   
 39  20  37  1   
 40  20  38  1   
 41  21  39  1   
 42  21  40  1   
 43  21  41  1   
@<TRIPOS>SUBSTRUCTURE
  1 ****  10 GROUP 4 **** **** 0

# MOE 2024.06 (io_trps.svl 2023.06)
