@<TRIPOS>MOLECULE
1-(2,5-Dichloro-benzenesulfonyl)-piperidine-4-carboxylic acid (2-methoxy-1-methy
47 48 1 0 0 
SMALL
USER_CHARGES


@<TRIPOS>ATOM
  1 CL       1.5130     0.1330     1.8990 Cl    1 <1>  -0.1770 
  2 C        1.1550    -1.5450     1.5650 C.ar  1 <1>   0.1770 
  3 C        1.3490    -2.0850     0.2990 C.ar  1 <1>  -0.0090 
  4 C        0.6710    -2.3000     2.6220 C.ar  1 <1>  -0.1500 
  5 S        1.9880    -1.0910    -1.0670 S.o2  1 <1>   1.4470 
  6 C        1.0380    -3.4300     0.1200 C.ar  1 <1>  -0.1500 
  7 C        0.3690    -3.6360     2.4280 C.ar  1 <1>  -0.1500 
  8 O        2.2030    -1.9450    -2.2160 O.2   1 <1>  -0.6500 
  9 O        1.1670     0.0880    -1.2340 O.2   1 <1>  -0.6500 
 10 N        3.5260    -0.6150    -0.5300 N.am  1 <1>  -0.8490 
 11 C        0.5570    -4.1850     1.1740 C.ar  1 <1>   0.1770 
 12 C        3.9470     0.6600    -1.1150 C.3   1 <1>   0.1960 
 13 C        4.5340    -1.6650    -0.7040 C.3   1 <1>   0.1960 
 14 CL       0.1810    -5.8680     0.9150 Cl    1 <1>  -0.1770 
 15 C        5.2530     1.1360    -0.4710 C.3   1 <1>  -0.1600 
 16 C        5.8450    -1.2570    -0.0310 C.3   1 <1>  -0.1600 
 17 C        6.3620     0.0800    -0.5900 C.3   1 <1>  -0.0190 
 18 C        7.6450     0.5480     0.0970 C.2   1 <1>   0.5690 
 19 O        7.7490     0.4440     1.2950 O.2   1 <1>  -0.5700 
 20 N        8.6270     1.0830    -0.6790 N.am  1 <1>  -0.7300 
 21 C        9.9120     1.6790    -0.2350 C.3   1 <1>   0.2200 
 22 C       10.6400     0.8120     0.8080 C.3   1 <1>   0.1200 
 23 C        9.6340     3.0930     0.2750 C.3   1 <1>  -0.2400 
 24 O       11.9530     1.2680     0.9500 O.3   1 <1>  -0.5600 
 25 C       12.6750     0.5920     1.9270 C.3   1 <1>   0.0400 
 26 H        0.5360    -1.8410     3.5860 H     1 <1>   0.1500 
 27 H        1.1680    -3.8970    -0.8420 H     1 <1>   0.1500 
 28 H       -0.0070    -4.2440     3.2320 H     1 <1>   0.1500 
 29 H        3.1920     1.4090    -0.9390 H     1 <1>   0.0800 
 30 H        4.0710     0.5490    -2.1800 H     1 <1>   0.0800 
 31 H        4.7020    -1.8420    -1.7550 H     1 <1>   0.0800 
 32 H        4.1840    -2.5820    -0.2600 H     1 <1>   0.0800 
 33 H        5.0660     1.3500     0.5680 H     1 <1>   0.0800 
 34 H        5.5670     2.0510    -0.9400 H     1 <1>   0.0800 
 35 H        6.5830    -2.0240    -0.1860 H     1 <1>   0.0800 
 36 H        5.6780    -1.1730     1.0290 H     1 <1>   0.0800 
 37 H        6.5790    -0.0630    -1.6330 H     1 <1>   0.0800 
 38 H        8.4530     1.1890    -1.6770 H     1 <1>   0.3700 
 39 H       10.5550     1.7410    -1.0970 H     1 <1>   0.0800 
 40 H       10.6710    -0.2120     0.4800 H     1 <1>   0.0800 
 41 H       10.1480     0.8810     1.7630 H     1 <1>   0.0800 
 42 H        8.9980     3.0590     1.1420 H     1 <1>   0.0800 
 43 H        9.1670     3.6850    -0.4900 H     1 <1>   0.0800 
 44 H       10.5590     3.5650     0.5530 H     1 <1>   0.0800 
 45 H       13.6670     1.0070     1.9590 H     1 <1>   0.0800 
 46 H       12.7250    -0.4530     1.6730 H     1 <1>   0.0800 
 47 H       12.1940     0.7280     2.8810 H     1 <1>   0.0800 
@<TRIPOS>BOND
  1   1   2  1   
  2   2   3  ar  
  3   2   4  ar  
  4   3   5  1   
  5   3   6  ar  
  6   4   7  ar  
  7   4  26  1   
  8   5   8  2   
  9   5   9  2   
 10   5  10  am  
 11   6  11  ar  
 12   6  27  1   
 13   7  11  ar  
 14   7  28  1   
 15  10  12  1   
 16  10  13  1   
 17  11  14  1   
 18  12  15  1   
 19  12  29  1   
 20  12  30  1   
 21  13  16  1   
 22  13  31  1   
 23  13  32  1   
 24  15  17  1   
 25  15  33  1   
 26  15  34  1   
 27  16  17  1   
 28  16  35  1   
 29  16  36  1   
 30  17  18  1   
 31  17  37  1   
 32  18  19  2   
 33  18  20  am  
 34  20  21  1   
 35  20  38  1   
 36  21  22  1   
 37  21  23  1   
 38  21  39  1   
 39  22  24  1   
 40  22  40  1   
 41  22  41  1   
 42  23  42  1   
 43  23  43  1   
 44  23  44  1   
 45  24  25  1   
 46  25  45  1   
 47  25  46  1   
 48  25  47  1   
@<TRIPOS>SUBSTRUCTURE
  1 ****  16 GROUP 4 **** **** 0

# MOE 2024.06 (io_trps.svl 2023.06)
