@<TRIPOS>MOLECULE
1-Piperidin-1-yl-cyclohexanecarboxylic acid
36 37 1 0 0 
SMALL
USER_CHARGES


@<TRIPOS>ATOM
  1 O       -0.4440    -0.7270    -2.5380 O.co2 1 <1>  -0.9000 
  2 C        0.3520    -1.3400    -1.8060 C.2   1 <1>   0.9060 
  3 O        1.5740    -1.2030    -1.9220 O.co2 1 <1>  -0.9000 
  4 C       -0.2950    -2.2110    -0.6610 C.3   1 <1>   0.3970 
  5 N       -1.5410    -1.4970    -0.1210 N.4   1 <1>  -0.9590 
  6 C       -0.7480    -3.5480    -1.3200 C.3   1 <1>  -0.1600 
  7 C        0.7000    -2.4920     0.5130 C.3   1 <1>  -0.1600 
  8 C       -1.2290    -0.0800     0.2510 C.3   1 <1>   0.3430 
  9 C       -2.3320    -2.1890     0.9340 C.3   1 <1>   0.3430 
 10 C        0.3690    -4.6010    -1.3110 C.3   1 <1>  -0.1600 
 11 C        0.5410    -3.8820     1.1570 C.3   1 <1>  -0.1600 
 12 C       -2.5260     0.6950     0.4850 C.3   1 <1>  -0.1600 
 13 C       -3.6470    -1.4470     1.1740 C.3   1 <1>  -0.1600 
 14 C        0.7520    -5.0040     0.1240 C.3   1 <1>  -0.1600 
 15 C       -3.4120     0.0240     1.5410 C.3   1 <1>  -0.1600 
 16 H       -2.0990    -1.3920    -0.9830 H     1 <1>   0.4500 
 17 H       -1.0350    -3.3600    -2.3420 H     1 <1>   0.0800 
 18 H       -1.5950    -3.9820    -0.8300 H     1 <1>   0.0800 
 19 H        0.6480    -1.7250     1.2610 H     1 <1>   0.0800 
 20 H        1.7060    -2.4610     0.1290 H     1 <1>   0.0800 
 21 H       -0.6760     0.4040    -0.5400 H     1 <1>   0.0800 
 22 H       -0.6270    -0.0590     1.1430 H     1 <1>   0.0800 
 23 H       -1.7610    -2.2140     1.8470 H     1 <1>   0.0800 
 24 H       -2.5490    -3.2020     0.6450 H     1 <1>   0.0800 
 25 H        1.2340    -4.1920    -1.8090 H     1 <1>   0.0800 
 26 H        0.0630    -5.4730    -1.8630 H     1 <1>   0.0800 
 27 H       -0.4360    -3.9800     1.5910 H     1 <1>   0.0800 
 28 H        1.2570    -3.9960     1.9530 H     1 <1>   0.0800 
 29 H       -3.0550     0.7750    -0.4490 H     1 <1>   0.0800 
 30 H       -2.2810     1.6940     0.8020 H     1 <1>   0.0800 
 31 H       -4.1840    -1.9320     1.9710 H     1 <1>   0.0800 
 32 H       -4.2550    -1.5110     0.2880 H     1 <1>   0.0800 
 33 H        1.7880    -5.2980     0.1250 H     1 <1>   0.0800 
 34 H        0.1770    -5.8630     0.4240 H     1 <1>   0.0800 
 35 H       -4.3550     0.5410     1.6090 H     1 <1>   0.0800 
 36 H       -2.9320     0.0830     2.5030 H     1 <1>   0.0800 
@<TRIPOS>BOND
  1   1   2  ar  
  2   2   3  ar  
  3   2   4  1   
  4   4   5  1   
  5   4   6  1   
  6   4   7  1   
  7   5   8  1   
  8   5   9  1   
  9   5  16  1   
 10   6  10  1   
 11   6  17  1   
 12   6  18  1   
 13   7  11  1   
 14   7  19  1   
 15   7  20  1   
 16   8  12  1   
 17   8  21  1   
 18   8  22  1   
 19   9  13  1   
 20   9  23  1   
 21   9  24  1   
 22  10  14  1   
 23  10  25  1   
 24  10  26  1   
 25  11  14  1   
 26  11  27  1   
 27  11  28  1   
 28  12  15  1   
 29  12  29  1   
 30  12  30  1   
 31  13  15  1   
 32  13  31  1   
 33  13  32  1   
 34  14  33  1   
 35  14  34  1   
 36  15  35  1   
 37  15  36  1   
@<TRIPOS>SUBSTRUCTURE
  1 ****   4 GROUP 4 **** **** 0

# MOE 2024.06 (io_trps.svl 2023.06)
