@<TRIPOS>MOLECULE
N-[1-(4-Allyl-5-mercapto-4H-[1,2,4]triazol-3-yl)-2-methyl-propyl]-4-methyl-benza
45 46 1 0 0 
SMALL
USER_CHARGES


@<TRIPOS>ATOM
  1 S       -0.9580    -1.4570     1.2570 S.3   1 <1>  -0.9360 
  2 C       -2.4140    -0.7490     1.3760 C.cat 1 <1>   0.7360 
  3 N       -2.7320     0.1530     2.2770 N.pl3 1 <1>  -0.3930 
  4 N       -3.4460    -0.9270     0.5790 N.pl3 1 <1>  -0.7640 
  5 N       -4.0000     0.6120     2.0720 N.2   1 <1>  -0.2600 
  6 C       -4.4080    -0.0450     1.0420 C.2   1 <1>   0.4850 
  7 C       -3.4750    -1.9560    -0.4650 C.3   1 <1>   0.4920 
  8 C       -5.7870     0.1990     0.3870 C.3   1 <1>   0.3880 
  9 C       -3.9480    -3.2670     0.1370 C.2   1 <1>  -0.2880 
 10 N       -6.5520    -1.0600     0.1540 N.am  1 <1>  -0.7300 
 11 C       -5.6790     0.9900    -0.9450 C.3   1 <1>  -0.0800 
 12 C       -3.2920    -4.4310     0.0800 C.2   1 <1>  -0.3000 
 13 C       -7.1890    -1.7310     1.1540 C.2   1 <1>   0.5440 
 14 C       -4.9340     2.3250    -0.7600 C.3   1 <1>  -0.2400 
 15 C       -7.0590     1.2880    -1.5650 C.3   1 <1>  -0.2400 
 16 O       -7.0650    -1.3070     2.2840 O.2   1 <1>  -0.5700 
 17 C       -8.0010    -2.9030     0.8710 C.ar  1 <1>   0.0860 
 18 C       -9.0510    -3.2650     1.7140 C.ar  1 <1>  -0.1500 
 19 C       -7.7720    -3.7110    -0.2440 C.ar  1 <1>  -0.1500 
 20 C       -9.8420    -4.3690     1.4530 C.ar  1 <1>  -0.1500 
 21 C       -8.5610    -4.8160    -0.5100 C.ar  1 <1>  -0.1500 
 22 C       -9.6020    -5.1520     0.3380 C.ar  1 <1>  -0.1430 
 23 C      -10.4710    -6.3630     0.0490 C.3   1 <1>  -0.0970 
 24 H       -2.0700     0.4260     3.0030 H     1 <1>   0.4500 
 25 H       -2.4910    -2.0780    -0.8870 H     1 <1>   0.0800 
 26 H       -4.1390    -1.6570    -1.2540 H     1 <1>   0.0800 
 27 H       -6.3540     0.8020     1.0760 H     1 <1>   0.0800 
 28 H       -4.8860    -3.1700     0.6490 H     1 <1>   0.1500 
 29 H       -6.8320    -1.2300    -0.8100 H     1 <1>   0.3700 
 30 H       -5.1120     0.4030    -1.6460 H     1 <1>   0.0800 
 31 H       -3.6460    -5.3450     0.5250 H     1 <1>   0.1500 
 32 H       -2.3370    -4.5650    -0.4030 H     1 <1>   0.1500 
 33 H       -5.4310     2.9430    -0.0320 H     1 <1>   0.0800 
 34 H       -4.8950     2.8650    -1.6910 H     1 <1>   0.0800 
 35 H       -3.9190     2.1640    -0.4390 H     1 <1>   0.0800 
 36 H       -7.6680     1.8510    -0.8790 H     1 <1>   0.0800 
 37 H       -7.5820     0.3840    -1.8210 H     1 <1>   0.0800 
 38 H       -6.9470     1.8640    -2.4670 H     1 <1>   0.0800 
 39 H       -9.2470    -2.6690     2.5890 H     1 <1>   0.1500 
 40 H       -6.9620    -3.4860    -0.9130 H     1 <1>   0.1500 
 41 H      -10.6460    -4.6170     2.1250 H     1 <1>   0.1500 
 42 H       -8.3600    -5.4190    -1.3790 H     1 <1>   0.1500 
 43 H      -11.3120    -6.0730    -0.5540 H     1 <1>   0.0800 
 44 H      -10.8330    -6.7940     0.9650 H     1 <1>   0.0800 
 45 H       -9.9090    -7.1140    -0.4780 H     1 <1>   0.0800 
@<TRIPOS>BOND
  1   1   2  1   
  2   2   3  ar  
  3   2   4  ar  
  4   3   5  1   
  5   3  24  1   
  6   4   6  1   
  7   4   7  1   
  8   5   6  2   
  9   6   8  1   
 10   7   9  1   
 11   7  25  1   
 12   7  26  1   
 13   8  10  1   
 14   8  11  1   
 15   8  27  1   
 16   9  12  2   
 17   9  28  1   
 18  10  13  am  
 19  10  29  1   
 20  11  14  1   
 21  11  15  1   
 22  11  30  1   
 23  12  31  1   
 24  12  32  1   
 25  13  16  2   
 26  13  17  1   
 27  14  33  1   
 28  14  34  1   
 29  14  35  1   
 30  15  36  1   
 31  15  37  1   
 32  15  38  1   
 33  17  18  ar  
 34  17  19  ar  
 35  18  20  ar  
 36  18  39  1   
 37  19  21  ar  
 38  19  40  1   
 39  20  22  ar  
 40  20  41  1   
 41  21  22  ar  
 42  21  42  1   
 43  22  23  1   
 44  23  43  1   
 45  23  44  1   
 46  23  45  1   
@<TRIPOS>SUBSTRUCTURE
  1 ****  10 GROUP 4 **** **** 0

# MOE 2024.06 (io_trps.svl 2023.06)
