@<TRIPOS>MOLECULE
2-(2-Isopropyl-phenoxy)-N-[1,3,4]thiadiazol-2-yl-acetamide
34 35 1 0 0 
SMALL
USER_CHARGES


@<TRIPOS>ATOM
  1 S       -0.8170     0.1100    -0.2690 S.3   1 <1>  -0.0800 
  2 C        0.3160     1.3720     0.1150 C.2   1 <1>   0.4420 
  3 C       -0.1550     0.1080    -1.8640 C.2   1 <1>   0.2280 
  4 N        1.0680     1.6630    -0.8820 N.2   1 <1>  -0.3380 
  5 N        0.3870     1.9320     1.3720 N.am  1 <1>  -0.4940 
  6 N        0.7890     0.9450    -2.0120 N.2   1 <1>  -0.3380 
  7 C       -0.4690     2.0260     2.4300 C.2   1 <1>   0.5690 
  8 O       -0.0540     2.4790     3.4660 O.2   1 <1>  -0.5700 
  9 C       -1.9300     1.5970     2.3630 C.3   1 <1>   0.1810 
 10 O       -2.5940     2.2580     1.2990 O.3   1 <1>  -0.3630 
 11 C       -3.8690     1.9600     0.9360 C.ar  1 <1>   0.0830 
 12 C       -4.4420     2.6590    -0.1310 C.ar  1 <1>  -0.1430 
 13 C       -4.6080     0.9790     1.5980 C.ar  1 <1>  -0.1500 
 14 C       -5.7390     2.3430    -0.5150 C.ar  1 <1>  -0.1500 
 15 C       -3.7260     3.7720    -0.9110 C.3   1 <1>   0.0630 
 16 C       -5.8980     0.6830     1.1990 C.ar  1 <1>  -0.1500 
 17 C       -6.4630     1.3640     0.1400 C.ar  1 <1>  -0.1500 
 18 C       -2.4780     3.2670    -1.6440 C.3   1 <1>  -0.2400 
 19 C       -3.3990     4.9770    -0.0220 C.3   1 <1>  -0.2400 
 20 H       -0.5710    -0.5730    -2.5840 H     1 <1>   0.1500 
 21 H        1.2520     2.4420     1.5380 H     1 <1>   0.3700 
 22 H       -2.4270     1.8640     3.2790 H     1 <1>   0.0800 
 23 H       -1.9900     0.5360     2.2140 H     1 <1>   0.0800 
 24 H       -4.2070     0.4320     2.4280 H     1 <1>   0.1500 
 25 H       -6.2040     2.8620    -1.3340 H     1 <1>   0.1500 
 26 H       -4.3990     4.1290    -1.6720 H     1 <1>   0.0800 
 27 H       -6.4630    -0.0760     1.7130 H     1 <1>   0.1500 
 28 H       -7.4660     1.1360    -0.1750 H     1 <1>   0.1500 
 29 H       -1.6950     3.0340    -0.9500 H     1 <1>   0.0800 
 30 H       -2.1140     4.0210    -2.3180 H     1 <1>   0.0800 
 31 H       -2.7150     2.3850    -2.2100 H     1 <1>   0.0800 
 32 H       -2.6620     4.7240     0.7180 H     1 <1>   0.0800 
 33 H       -4.2880     5.3110     0.4820 H     1 <1>   0.0800 
 34 H       -3.0170     5.7860    -0.6180 H     1 <1>   0.0800 
@<TRIPOS>BOND
  1   1   2  1   
  2   1   3  1   
  3   2   4  2   
  4   2   5  1   
  5   3   6  2   
  6   3  20  1   
  7   4   6  1   
  8   5   7  am  
  9   5  21  1   
 10   7   8  2   
 11   7   9  1   
 12   9  10  1   
 13   9  22  1   
 14   9  23  1   
 15  10  11  1   
 16  11  12  ar  
 17  11  13  ar  
 18  12  14  ar  
 19  12  15  1   
 20  13  16  ar  
 21  13  24  1   
 22  14  17  ar  
 23  14  25  1   
 24  15  18  1   
 25  15  19  1   
 26  15  26  1   
 27  16  17  ar  
 28  16  27  1   
 29  17  28  1   
 30  18  29  1   
 31  18  30  1   
 32  18  31  1   
 33  19  32  1   
 34  19  33  1   
 35  19  34  1   
@<TRIPOS>SUBSTRUCTURE
  1 ****  10 GROUP 4 **** **** 0

# MOE 2024.06 (io_trps.svl 2023.06)
