@<TRIPOS>MOLECULE
Diethyl-(2-piperidin-2-yl-ethyl)-amine
39 39 1 0 0 
SMALL
USER_CHARGES


@<TRIPOS>ATOM
  1 N        0.1640     0.0760     0.1170 N.4   1 <1>  -0.9590 
  2 C       -1.0590     0.9330     0.1680 C.3   1 <1>   0.3430 
  3 C        1.3750     0.9080     0.3800 C.3   1 <1>   0.3430 
  4 C        0.3070    -0.6670    -1.1690 C.3   1 <1>   0.3430 
  5 C       -2.3420     0.0890     0.2550 C.3   1 <1>  -0.1600 
  6 C        2.5350     0.0110     0.7950 C.3   1 <1>  -0.2400 
  7 C        0.1480    -2.1550    -0.8870 C.3   1 <1>  -0.2400 
  8 C       -3.5950     0.9590     0.4490 C.3   1 <1>   0.4230 
  9 N       -4.7750     0.0790     0.6370 N.4   1 <1>  -0.9060 
 10 C       -3.8560     1.8880    -0.7490 C.3   1 <1>  -0.1600 
 11 C       -6.0310     0.8360     0.9100 C.3   1 <1>   0.3430 
 12 C       -5.1530     2.6920    -0.5750 C.3   1 <1>  -0.1600 
 13 C       -6.3330     1.7620    -0.2680 C.3   1 <1>  -0.1600 
 14 H        0.1320    -0.6230     0.8720 H     1 <1>   0.4500 
 15 H       -1.0890     1.5670    -0.7040 H     1 <1>   0.0800 
 16 H       -1.0040     1.5710     1.0380 H     1 <1>   0.0800 
 17 H        1.1770     1.6020     1.1810 H     1 <1>   0.0800 
 18 H        1.6400     1.4760    -0.4990 H     1 <1>   0.0800 
 19 H        1.2810    -0.4910    -1.5990 H     1 <1>   0.0800 
 20 H       -0.4350    -0.3430    -1.8810 H     1 <1>   0.0800 
 21 H       -2.2520    -0.5760     1.0950 H     1 <1>   0.0800 
 22 H       -2.4520    -0.4880    -0.6460 H     1 <1>   0.0800 
 23 H        2.2860    -0.5630     1.6700 H     1 <1>   0.0800 
 24 H        3.3850     0.6260     1.0370 H     1 <1>   0.0800 
 25 H        2.8310    -0.6500     0.0000 H     1 <1>   0.0800 
 26 H        0.9130    -2.5010    -0.2150 H     1 <1>   0.0800 
 27 H        0.2530    -2.7000    -1.8090 H     1 <1>   0.0800 
 28 H       -0.8210    -2.3790    -0.4800 H     1 <1>   0.0800 
 29 H       -3.4720     1.5650     1.3340 H     1 <1>   0.0800 
 30 H       -4.6190    -0.5840     1.4060 H     1 <1>   0.4500 
 31 H       -4.9290    -0.4730    -0.2150 H     1 <1>   0.4500 
 32 H       -3.9150     1.3110    -1.6570 H     1 <1>   0.0800 
 33 H       -3.0460     2.5860    -0.8630 H     1 <1>   0.0800 
 34 H       -5.9200     1.4230     1.8090 H     1 <1>   0.0800 
 35 H       -6.8560     0.1540     1.0530 H     1 <1>   0.0800 
 36 H       -5.3590     3.2550    -1.4720 H     1 <1>   0.0800 
 37 H       -5.0360     3.4000     0.2300 H     1 <1>   0.0800 
 38 H       -7.2010     2.3550    -0.0360 H     1 <1>   0.0800 
 39 H       -6.5750     1.1730    -1.1370 H     1 <1>   0.0800 
@<TRIPOS>BOND
  1   1   2  1   
  2   1   3  1   
  3   1   4  1   
  4   1  14  1   
  5   2   5  1   
  6   2  15  1   
  7   2  16  1   
  8   3   6  1   
  9   3  17  1   
 10   3  18  1   
 11   4   7  1   
 12   4  19  1   
 13   4  20  1   
 14   5   8  1   
 15   5  21  1   
 16   5  22  1   
 17   6  23  1   
 18   6  24  1   
 19   6  25  1   
 20   7  26  1   
 21   7  27  1   
 22   7  28  1   
 23   8   9  1   
 24   8  10  1   
 25   8  29  1   
 26   9  11  1   
 27   9  30  1   
 28   9  31  1   
 29  10  12  1   
 30  10  32  1   
 31  10  33  1   
 32  11  13  1   
 33  11  34  1   
 34  11  35  1   
 35  12  13  1   
 36  12  36  1   
 37  12  37  1   
 38  13  38  1   
 39  13  39  1   
@<TRIPOS>SUBSTRUCTURE
  1 ****   5 GROUP 4 **** **** 0

# MOE 2024.06 (io_trps.svl 2023.06)
