@<TRIPOS>MOLECULE
1-[4-(3,4,5,6-Tetrahydroxy-tetrahydro-pyran-2-ylamino)-phenyl]-ethanone
37 38 1 0 0 
SMALL
USER_CHARGES


@<TRIPOS>ATOM
  1 O       -0.0590    -0.2090    -0.9680 O.2   1 <1>  -0.5700 
  2 C       -0.9770     0.4230    -0.5090 C.2   1 <1>   0.4230 
  3 C       -2.1900    -0.1830    -0.0040 C.ar  1 <1>   0.0860 
  4 C       -0.8020     1.9300    -0.4810 C.3   1 <1>  -0.1790 
  5 C       -2.3430    -1.5740    -0.0140 C.ar  1 <1>  -0.1500 
  6 C       -3.2600     0.5560     0.5170 C.ar  1 <1>  -0.1500 
  7 C       -3.4840    -2.1870     0.4600 C.ar  1 <1>  -0.1500 
  8 C       -4.4040    -0.0560     0.9910 C.ar  1 <1>  -0.1500 
  9 C       -4.5380    -1.4370     0.9660 C.ar  1 <1>   0.1000 
 10 N       -5.6860    -2.0350     1.4410 N.pl3 1 <1>  -0.8690 
 11 C       -6.5910    -2.6730     0.4900 C.3   1 <1>   0.5690 
 12 O       -7.8050    -2.0850     0.8260 O.3   1 <1>  -0.5600 
 13 C       -6.6600    -4.2190     0.6460 C.3   1 <1>   0.2000 
 14 C       -8.9130    -2.4860     0.0910 C.3   1 <1>   0.4800 
 15 O       -5.5210    -4.8650     0.1480 O.3   1 <1>  -0.6800 
 16 C       -7.8790    -4.8000    -0.0920 C.3   1 <1>   0.2000 
 17 O       -8.6770    -2.1160    -1.2230 O.3   1 <1>  -0.6800 
 18 C       -9.1620    -4.0080     0.2180 C.3   1 <1>   0.2000 
 19 O       -7.6480    -4.8000    -1.4800 O.3   1 <1>  -0.6800 
 20 O      -10.1650    -4.4140    -0.6680 O.3   1 <1>  -0.6800 
 21 H       -0.8610     2.2880     0.5290 H     1 <1>   0.0800 
 22 H       -1.5600     2.3990    -1.0800 H     1 <1>   0.0800 
 23 H        0.1610     2.1920    -0.8810 H     1 <1>   0.0800 
 24 H       -1.5420    -2.1820    -0.4000 H     1 <1>   0.1500 
 25 H       -3.2070     1.6280     0.5570 H     1 <1>   0.1500 
 26 H       -3.5630    -3.2590     0.4520 H     1 <1>   0.1500 
 27 H       -5.2090     0.5370     1.3850 H     1 <1>   0.1500 
 28 H       -6.2780    -1.4180     2.0010 H     1 <1>   0.4000 
 29 H       -6.3400    -2.3950    -0.5200 H     1 <1>   0.0800 
 30 H       -6.7220    -4.4440     1.6960 H     1 <1>   0.0800 
 31 H       -9.7650    -1.9370     0.4560 H     1 <1>   0.0800 
 32 H       -5.6760    -5.0730    -0.7990 H     1 <1>   0.4000 
 33 H       -8.0130    -5.8240     0.2160 H     1 <1>   0.0800 
 34 H       -9.5220    -2.2030    -1.7100 H     1 <1>   0.4000 
 35 H       -9.5010    -4.2200     1.2170 H     1 <1>   0.0800 
 36 H       -7.6920    -3.8750    -1.8200 H     1 <1>   0.4000 
 37 H       -9.7340    -4.8850    -1.4180 H     1 <1>   0.4000 
@<TRIPOS>BOND
  1   1   2  2   
  2   2   3  1   
  3   2   4  1   
  4   3   5  ar  
  5   3   6  ar  
  6   4  21  1   
  7   4  22  1   
  8   4  23  1   
  9   5   7  ar  
 10   5  24  1   
 11   6   8  ar  
 12   6  25  1   
 13   7   9  ar  
 14   7  26  1   
 15   8   9  ar  
 16   8  27  1   
 17   9  10  1   
 18  10  11  1   
 19  10  28  1   
 20  11  12  1   
 21  11  13  1   
 22  11  29  1   
 23  12  14  1   
 24  13  15  1   
 25  13  16  1   
 26  13  30  1   
 27  14  17  1   
 28  14  18  1   
 29  14  31  1   
 30  15  32  1   
 31  16  18  1   
 32  16  19  1   
 33  16  33  1   
 34  17  34  1   
 35  18  20  1   
 36  18  35  1   
 37  19  36  1   
 38  20  37  1   
@<TRIPOS>SUBSTRUCTURE
  1 ****   9 GROUP 4 **** **** 0

# MOE 2024.06 (io_trps.svl 2023.06)
