@<TRIPOS>MOLECULE
2-Morpholin-4-yl-N-[2-(toluene-4-sulfonylamino)-ethyl]-acetamide
46 47 1 0 0 
SMALL
USER_CHARGES


@<TRIPOS>ATOM
  1 S        0.6360     0.3910     0.1070 S.o2  1 <1>   1.4470 
  2 O        1.2210    -0.5850     0.9960 O.2   1 <1>  -0.6500 
  3 O        1.2110     0.6190    -1.2000 O.2   1 <1>  -0.6500 
  4 N        0.7590     1.8310     0.9640 N.am  1 <1>  -0.9140 
  5 C       -1.1540     0.1380    -0.0330 C.ar  1 <1>  -0.0090 
  6 C        1.9690     2.6140     0.6950 C.3   1 <1>   0.1960 
  7 C       -1.9480     1.0430    -0.7260 C.ar  1 <1>  -0.1500 
  8 C       -1.7790    -0.9580     0.5510 C.ar  1 <1>  -0.1500 
  9 C        3.2450     1.9580     1.2470 C.3   1 <1>   0.1400 
 10 C       -3.3160     0.8620    -0.8350 C.ar  1 <1>  -0.1500 
 11 C       -3.1460    -1.1450     0.4450 C.ar  1 <1>  -0.1500 
 12 N        4.4440     2.6640     0.7290 N.am  1 <1>  -0.7300 
 13 C       -3.9230    -0.2350    -0.2500 C.ar  1 <1>  -0.1430 
 14 C        5.1990     2.3100    -0.3460 C.2   1 <1>   0.5690 
 15 C       -5.4230    -0.4360    -0.3670 C.3   1 <1>  -0.0970 
 16 O        6.1910     2.9490    -0.6010 O.2   1 <1>  -0.5700 
 17 C        4.8110     1.1310    -1.2540 C.3   1 <1>   0.1710 
 18 N        4.8960    -0.2000    -0.5980 N.3   1 <1>  -0.8100 
 19 C        6.2920    -0.5890    -0.3240 C.3   1 <1>   0.1100 
 20 C        4.2350    -1.2420    -1.4040 C.3   1 <1>   0.1100 
 21 C        6.3530    -1.9870     0.3190 C.3   1 <1>   0.1200 
 22 C        4.3520    -2.6140    -0.7180 C.3   1 <1>   0.1200 
 23 O        5.6960    -2.9300    -0.4810 O.3   1 <1>  -0.5600 
 24 H        0.7650     1.5390     1.9390 H     1 <1>   0.4200 
 25 H        1.8570     3.5820     1.1520 H     1 <1>   0.0800 
 26 H        2.0690     2.7640    -0.3670 H     1 <1>   0.0800 
 27 H       -1.4880     1.9010    -1.1870 H     1 <1>   0.1500 
 28 H       -1.1900    -1.6780     1.0950 H     1 <1>   0.1500 
 29 H        3.2900     0.9240     0.9580 H     1 <1>   0.0800 
 30 H        3.2480     2.0030     2.3220 H     1 <1>   0.0800 
 31 H       -3.9050     1.5810    -1.3780 H     1 <1>   0.1500 
 32 H       -3.6030    -2.0030     0.9080 H     1 <1>   0.1500 
 33 H        4.8020     3.4480     1.2770 H     1 <1>   0.3700 
 34 H       -5.7870    -0.0220    -1.2900 H     1 <1>   0.0800 
 35 H       -5.9200     0.0510     0.4520 H     1 <1>   0.0800 
 36 H       -5.6650    -1.4840    -0.3470 H     1 <1>   0.0800 
 37 H        5.4430     1.1450    -2.1240 H     1 <1>   0.0800 
 38 H        3.8010     1.2960    -1.5830 H     1 <1>   0.0800 
 39 H        6.7420     0.1260     0.3440 H     1 <1>   0.0800 
 40 H        6.8610    -0.5980    -1.2380 H     1 <1>   0.0800 
 41 H        4.6840    -1.2970    -2.3810 H     1 <1>   0.0800 
 42 H        3.1940    -0.9990    -1.5230 H     1 <1>   0.0800 
 43 H        5.8860    -1.9730     1.2890 H     1 <1>   0.0800 
 44 H        7.3750    -2.3030     0.4290 H     1 <1>   0.0800 
 45 H        3.9380    -3.3820    -1.3450 H     1 <1>   0.0800 
 46 H        3.8260    -2.6080     0.2210 H     1 <1>   0.0800 
@<TRIPOS>BOND
  1   1   2  2   
  2   1   3  2   
  3   1   4  am  
  4   1   5  1   
  5   4   6  1   
  6   4  24  1   
  7   5   7  ar  
  8   5   8  ar  
  9   6   9  1   
 10   6  25  1   
 11   6  26  1   
 12   7  10  ar  
 13   7  27  1   
 14   8  11  ar  
 15   8  28  1   
 16   9  12  1   
 17   9  29  1   
 18   9  30  1   
 19  10  13  ar  
 20  10  31  1   
 21  11  13  ar  
 22  11  32  1   
 23  12  14  am  
 24  12  33  1   
 25  13  15  1   
 26  14  16  2   
 27  14  17  1   
 28  15  34  1   
 29  15  35  1   
 30  15  36  1   
 31  17  18  1   
 32  17  37  1   
 33  17  38  1   
 34  18  19  1   
 35  18  20  1   
 36  19  21  1   
 37  19  39  1   
 38  19  40  1   
 39  20  22  1   
 40  20  41  1   
 41  20  42  1   
 42  21  23  1   
 43  21  43  1   
 44  21  44  1   
 45  22  23  1   
 46  22  45  1   
 47  22  46  1   
@<TRIPOS>SUBSTRUCTURE
  1 ****   1 GROUP 4 **** **** 0

# MOE 2024.06 (io_trps.svl 2023.06)
