@<TRIPOS>MOLECULE
1-(4-Hydroxy-phenyl)-5-oxo-pyrrolidine-3-carboxylic acid (2-hydroxy-propyl)-amid
38 39 1 0 0 
SMALL
USER_CHARGES


@<TRIPOS>ATOM
  1 O       -1.0110     0.0320    -1.6650 O.2   1 <1>  -0.5700 
  2 C       -0.9210     1.0640    -1.0480 C.2   1 <1>   0.5690 
  3 N       -1.8930     1.6730    -0.3070 N.am  1 <1>  -0.4770 
  4 C        0.3650     1.8400    -1.0080 C.3   1 <1>  -0.0990 
  5 C       -3.2140     1.2440    -0.0660 C.ar  1 <1>   0.1170 
  6 C       -1.3720     2.9180     0.2970 C.3   1 <1>   0.1400 
  7 C        0.1540     2.7960     0.1750 C.3   1 <1>  -0.0190 
  8 C       -3.5130    -0.1080     0.0820 C.ar  1 <1>  -0.1500 
  9 C       -4.2540     2.1660     0.0430 C.ar  1 <1>  -0.1500 
 10 C        0.8760     4.1290     0.0210 C.2   1 <1>   0.5690 
 11 C       -4.8060    -0.5280     0.3390 C.ar  1 <1>  -0.1500 
 12 C       -5.5500     1.7550     0.3010 C.ar  1 <1>  -0.1500 
 13 O        0.2390     5.1400    -0.1290 O.2   1 <1>  -0.5700 
 14 N        2.2270     4.1920     0.0510 N.am  1 <1>  -0.7300 
 15 C       -5.8200     0.4050     0.4500 C.ar  1 <1>   0.0830 
 16 C        3.2380     3.1270     0.2640 C.3   1 <1>   0.1400 
 17 O       -7.0720    -0.0120     0.7020 O.3   1 <1>  -0.5320 
 18 C        4.5450     3.7250     0.8190 C.3   1 <1>   0.2000 
 19 O        4.9180     4.8270     0.0690 O.3   1 <1>  -0.6800 
 20 C        5.7070     2.7350     0.7850 C.3   1 <1>  -0.2400 
 21 H        0.4710     2.3780    -1.9330 H     1 <1>   0.0800 
 22 H        1.2030     1.1860    -0.8600 H     1 <1>   0.0800 
 23 H       -1.6790     3.0070     1.3250 H     1 <1>   0.0800 
 24 H       -1.7470     3.7550    -0.2680 H     1 <1>   0.0800 
 25 H        0.5050     2.3230     1.0730 H     1 <1>   0.0800 
 26 H       -2.7300    -0.8390    -0.0050 H     1 <1>   0.1500 
 27 H       -4.0540     3.2140    -0.0810 H     1 <1>   0.1500 
 28 H       -5.0320    -1.5730     0.4520 H     1 <1>   0.1500 
 29 H       -6.3360     2.4820     0.3820 H     1 <1>   0.1500 
 30 H        2.6410     5.1270    -0.0530 H     1 <1>   0.3700 
 31 H        3.4370     2.6390    -0.6750 H     1 <1>   0.0800 
 32 H        2.8640     2.3920     0.9540 H     1 <1>   0.0800 
 33 H       -7.7120     0.7200     0.7430 H     1 <1>   0.4500 
 34 H        4.3830     4.0640     1.8290 H     1 <1>   0.0800 
 35 H        5.1910     4.5540    -0.8280 H     1 <1>   0.4000 
 36 H        5.8980     2.3970    -0.2180 H     1 <1>   0.0800 
 37 H        5.4750     1.8800     1.3950 H     1 <1>   0.0800 
 38 H        6.5930     3.1970     1.1820 H     1 <1>   0.0800 
@<TRIPOS>BOND
  1   1   2  2   
  2   2   3  am  
  3   2   4  1   
  4   3   5  1   
  5   3   6  1   
  6   4   7  1   
  7   4  21  1   
  8   4  22  1   
  9   5   8  ar  
 10   5   9  ar  
 11   6   7  1   
 12   6  23  1   
 13   6  24  1   
 14   7  10  1   
 15   7  25  1   
 16   8  11  ar  
 17   8  26  1   
 18   9  12  ar  
 19   9  27  1   
 20  10  13  2   
 21  10  14  am  
 22  11  15  ar  
 23  11  28  1   
 24  12  15  ar  
 25  12  29  1   
 26  14  16  1   
 27  14  30  1   
 28  15  17  1   
 29  16  18  1   
 30  16  31  1   
 31  16  32  1   
 32  17  33  1   
 33  18  19  1   
 34  18  20  1   
 35  18  34  1   
 36  19  35  1   
 37  20  36  1   
 38  20  37  1   
 39  20  38  1   
@<TRIPOS>SUBSTRUCTURE
  1 ****   6 GROUP 4 **** **** 0

# MOE 2024.06 (io_trps.svl 2023.06)
