@<TRIPOS>MOLECULE
3-tert-Butyl-6-(4-chloro-phenoxymethyl)-[1,2,4]triazolo[3,4-b][1,3,4]thiadiazole
36 38 1 0 0 
SMALL
USER_CHARGES


@<TRIPOS>ATOM
  1 CL       0.6590    -0.3070    -0.4720 Cl    1 <1>  -0.1770 
  2 C        2.1680     0.5260    -0.1940 C.ar  1 <1>   0.1770 
  3 C        3.3460    -0.0320    -0.6560 C.ar  1 <1>  -0.1500 
  4 C        2.1610     1.7310     0.4830 C.ar  1 <1>  -0.1500 
  5 C        4.5390     0.6330    -0.4330 C.ar  1 <1>  -0.1500 
  6 C        3.3570     2.3950     0.7060 C.ar  1 <1>  -0.1500 
  7 C        4.5540     1.8440     0.2460 C.ar  1 <1>   0.0830 
  8 O        5.7670     2.4240     0.4200 O.3   1 <1>  -0.3630 
  9 C        5.9070     3.6420     1.1270 C.3   1 <1>   0.1810 
 10 C        7.3700     4.0510     1.1740 C.2   1 <1>   0.5300 
 11 S        8.4740     2.9610     2.0380 S.3   1 <1>  -0.1970 
 12 N        7.9210     5.0900     0.6870 N.2   1 <1>  -0.6520 
 13 C        9.7800     4.0640     1.6560 C.2   1 <1>   0.2430 
 14 N        9.2970     5.0800     0.9610 N.pl3 1 <1>   0.5050 
 15 N       11.0400     4.1110     1.8910 N.2   1 <1>  -0.3380 
 16 C       10.4050     5.8190     0.7570 C.2   1 <1>   0.0070 
 17 N       11.4450     5.2530     1.3050 N.2   1 <1>  -0.3380 
 18 C       10.4030     7.1420    -0.0210 C.3   1 <1>   0.1800 
 19 C        9.4850     8.1600     0.6720 C.3   1 <1>  -0.2400 
 20 C       11.8180     7.7400    -0.0870 C.3   1 <1>  -0.2400 
 21 C        9.9150     6.9080    -1.4580 C.3   1 <1>  -0.2400 
 22 H        3.3240    -0.9710    -1.1800 H     1 <1>   0.1500 
 23 H        1.2290     2.1390     0.8290 H     1 <1>   0.1500 
 24 H        5.4660     0.2150    -0.7830 H     1 <1>   0.1500 
 25 H        3.3310     3.3300     1.2320 H     1 <1>   0.1500 
 26 H        5.5340     3.5020     2.1250 H     1 <1>   0.0800 
 27 H        5.3380     4.3970     0.6170 H     1 <1>   0.0800 
 28 H        9.8050     8.3140     1.6880 H     1 <1>   0.0800 
 29 H        8.4670     7.8160     0.6840 H     1 <1>   0.0800 
 30 H        9.5140     9.1050     0.1600 H     1 <1>   0.0800 
 31 H       12.4900     7.0560    -0.5750 H     1 <1>   0.0800 
 32 H       12.1920     7.9260     0.9050 H     1 <1>   0.0800 
 33 H       11.8200     8.6670    -0.6320 H     1 <1>   0.0800 
 34 H       10.5370     6.1780    -1.9460 H     1 <1>   0.0800 
 35 H        9.9530     7.8220    -2.0250 H     1 <1>   0.0800 
 36 H        8.9010     6.5500    -1.4680 H     1 <1>   0.0800 
@<TRIPOS>BOND
  1   1   2  1   
  2   2   3  ar  
  3   2   4  ar  
  4   3   5  ar  
  5   3  22  1   
  6   4   6  ar  
  7   4  23  1   
  8   5   7  ar  
  9   5  24  1   
 10   6   7  ar  
 11   6  25  1   
 12   7   8  1   
 13   8   9  1   
 14   9  10  1   
 15   9  26  1   
 16   9  27  1   
 17  10  11  1   
 18  10  12  2   
 19  11  13  1   
 20  12  14  1   
 21  13  14  1   
 22  13  15  2   
 23  14  16  1   
 24  15  17  1   
 25  16  17  2   
 26  16  18  1   
 27  18  19  1   
 28  18  20  1   
 29  18  21  1   
 30  19  28  1   
 31  19  29  1   
 32  19  30  1   
 33  20  31  1   
 34  20  32  1   
 35  20  33  1   
 36  21  34  1   
 37  21  35  1   
 38  21  36  1   
@<TRIPOS>SUBSTRUCTURE
  1 ****  10 GROUP 4 **** **** 0

# MOE 2024.06 (io_trps.svl 2023.06)
