@<TRIPOS>MOLECULE
5-(5-Cyclohexyl-4-methyl-4H-[1,2,4]triazol-3-ylsulfanylmethyl)-3-phenyl-[1,2,4]o
46 49 1 0 0 
SMALL
USER_CHARGES


@<TRIPOS>ATOM
  1 S       -0.1740     0.7160     0.5100 S.3   1 <1>  -0.2860 
  2 C       -1.1290    -0.7940     0.3520 C.2   1 <1>   0.2420 
  3 C        1.5600     0.0710     0.5570 C.3   1 <1>   0.2500 
  4 N       -0.5990    -1.9630     0.3170 N.2   1 <1>  -0.3380 
  5 N       -2.4580    -0.8030     0.2630 N.pl3 1 <1>   0.0480 
  6 C        2.5270     1.2280     0.7150 C.2   1 <1>   0.2980 
  7 N       -1.6190    -2.8160     0.1990 N.2   1 <1>  -0.3380 
  8 C       -2.7120    -2.1200     0.1720 C.2   1 <1>   0.0060 
  9 C       -3.3790     0.3530     0.2750 C.3   1 <1>   0.0160 
 10 O        2.4860     1.9310     1.8160 O.3   1 <1>  -0.0190 
 11 N        3.4050     1.5870    -0.1290 N.2   1 <1>  -0.5650 
 12 C       -4.1180    -2.7060     0.0440 C.3   1 <1>   0.1000 
 13 N        3.4180     2.8180     1.6580 N.2   1 <1>  -0.4100 
 14 C        3.9630     2.6220     0.5090 C.2   1 <1>   0.4620 
 15 C       -4.2200    -4.1100     0.6680 C.3   1 <1>  -0.1600 
 16 C       -4.5430    -2.7480    -1.4340 C.3   1 <1>  -0.1600 
 17 C        5.0510     3.4010    -0.0590 C.ar  1 <1>   0.0540 
 18 C       -5.6300    -4.6960     0.5120 C.3   1 <1>  -0.1600 
 19 C       -5.9520    -3.3340    -1.6020 C.3   1 <1>  -0.1600 
 20 C        5.5710     3.1250    -1.3260 C.ar  1 <1>  -0.1500 
 21 C        5.6250     4.4640     0.6430 C.ar  1 <1>  -0.1500 
 22 C       -6.0540    -4.7250    -0.9620 C.3   1 <1>  -0.1600 
 23 C        6.6070     3.8660    -1.8640 C.ar  1 <1>  -0.1500 
 24 C        6.6610     5.2100     0.1120 C.ar  1 <1>  -0.1500 
 25 C        7.1550     4.9120    -1.1440 C.ar  1 <1>  -0.1500 
 26 H        1.7300    -0.4520    -0.3650 H     1 <1>   0.0800 
 27 H        1.6290    -0.6080     1.3870 H     1 <1>   0.0800 
 28 H       -3.6100     0.6100     1.2920 H     1 <1>   0.0800 
 29 H       -4.2830     0.1090    -0.2510 H     1 <1>   0.0800 
 30 H       -2.9100     1.1920    -0.2080 H     1 <1>   0.0800 
 31 H       -4.8020    -2.0700     0.5780 H     1 <1>   0.0800 
 32 H       -3.9610    -4.0580     1.7110 H     1 <1>   0.0800 
 33 H       -3.5130    -4.7660     0.1890 H     1 <1>   0.0800 
 34 H       -3.8390    -3.3530    -1.9810 H     1 <1>   0.0800 
 35 H       -4.5150    -1.7580    -1.8520 H     1 <1>   0.0800 
 36 H       -6.3310    -4.1030     1.0750 H     1 <1>   0.0800 
 37 H       -5.6490    -5.6950     0.9120 H     1 <1>   0.0800 
 38 H       -6.1900    -3.4040    -2.6500 H     1 <1>   0.0800 
 39 H       -6.6720    -2.6780    -1.1440 H     1 <1>   0.0800 
 40 H        5.1560     2.3150    -1.9010 H     1 <1>   0.1500 
 41 H        5.2530     4.7100     1.6230 H     1 <1>   0.1500 
 42 H       -7.0650    -5.0860    -1.0400 H     1 <1>   0.0800 
 43 H       -5.4190    -5.4100    -1.4990 H     1 <1>   0.0800 
 44 H        6.9870     3.6300    -2.8430 H     1 <1>   0.1500 
 45 H        7.0840     6.0230     0.6770 H     1 <1>   0.1500 
 46 H        7.9620     5.4910    -1.5600 H     1 <1>   0.1500 
@<TRIPOS>BOND
  1   1   2  1   
  2   1   3  1   
  3   2   4  2   
  4   2   5  1   
  5   3   6  1   
  6   3  26  1   
  7   3  27  1   
  8   4   7  1   
  9   5   8  1   
 10   5   9  1   
 11   6  10  1   
 12   6  11  2   
 13   7   8  2   
 14   8  12  1   
 15   9  28  1   
 16   9  29  1   
 17   9  30  1   
 18  10  13  1   
 19  11  14  1   
 20  12  15  1   
 21  12  16  1   
 22  12  31  1   
 23  13  14  2   
 24  14  17  1   
 25  15  18  1   
 26  15  32  1   
 27  15  33  1   
 28  16  19  1   
 29  16  34  1   
 30  16  35  1   
 31  17  20  ar  
 32  17  21  ar  
 33  18  22  1   
 34  18  36  1   
 35  18  37  1   
 36  19  22  1   
 37  19  38  1   
 38  19  39  1   
 39  20  23  ar  
 40  20  40  1   
 41  21  24  ar  
 42  21  41  1   
 43  22  42  1   
 44  22  43  1   
 45  23  25  ar  
 46  23  44  1   
 47  24  25  ar  
 48  24  45  1   
 49  25  46  1   
@<TRIPOS>SUBSTRUCTURE
  1 ****   1 GROUP 4 **** **** 0

# MOE 2024.06 (io_trps.svl 2023.06)
