@<TRIPOS>MOLECULE
N-Isopropyl-2-(3-methoxy-phenoxy)-N-(3-m-tolyl-[1,2,4]oxadiazol-5-ylmethyl)-acet
54 56 1 0 0 
SMALL
USER_CHARGES


@<TRIPOS>ATOM
  1 O        1.1490     0.1230     0.5280 O.2   1 <1>  -0.5700 
  2 C        0.8070     1.2490     0.2440 C.2   1 <1>   0.5690 
  3 N        1.5630     2.0400    -0.5960 N.am  1 <1>  -0.6600 
  4 C       -0.4850     1.7410     0.8990 C.3   1 <1>   0.1810 
  5 C        2.8280     1.5040    -1.1840 C.3   1 <1>   0.2200 
  6 C        1.1450     3.4260    -1.0140 C.3   1 <1>   0.3200 
  7 O       -1.4780     2.0460    -0.0680 O.3   1 <1>  -0.3630 
  8 C        3.9950     2.4770    -1.0020 C.3   1 <1>  -0.2400 
  9 C        2.6100     1.1560    -2.6560 C.3   1 <1>  -0.2400 
 10 C        1.6710     4.5140    -0.0860 C.2   1 <1>   0.2980 
 11 C       -2.6050     2.7170     0.2760 C.ar  1 <1>   0.0820 
 12 O        1.4010     4.4390     1.1900 O.3   1 <1>  -0.0190 
 13 N        2.3630     5.5210    -0.4360 N.2   1 <1>  -0.5650 
 14 C       -3.3900     3.1910    -0.7600 C.ar  1 <1>  -0.1500 
 15 C       -2.9930     2.9490     1.5930 C.ar  1 <1>  -0.1500 
 16 N        1.9710     5.4840     1.6980 N.2   1 <1>  -0.4100 
 17 C        2.5440     6.1270     0.7430 C.2   1 <1>   0.4620 
 18 C       -4.5480     3.9040    -0.5040 C.ar  1 <1>   0.0820 
 19 C       -4.1520     3.6600     1.8560 C.ar  1 <1>  -0.1500 
 20 C        3.3030     7.3590     0.8860 C.ar  1 <1>   0.0540 
 21 O       -5.2510     4.3360    -1.5810 O.3   1 <1>  -0.3630 
 22 C       -4.9290     4.1390     0.8150 C.ar  1 <1>  -0.1500 
 23 C        3.8820     7.9990    -0.2130 C.ar  1 <1>  -0.1500 
 24 C        3.4850     7.9540     2.1350 C.ar  1 <1>  -0.1500 
 25 C       -6.4550     5.0570    -1.4300 C.3   1 <1>   0.0400 
 26 C        4.6070     9.1720    -0.0800 C.ar  1 <1>  -0.1440 
 27 C        4.2050     9.1250     2.2810 C.ar  1 <1>  -0.1500 
 28 C        4.7660     9.7350     1.1740 C.ar  1 <1>  -0.1500 
 29 C        5.2230     9.8440    -1.2940 C.3   1 <1>  -0.0970 
 30 H       -0.2850     2.6180     1.4810 H     1 <1>   0.0800 
 31 H       -0.8760     0.9700     1.5380 H     1 <1>   0.0800 
 32 H        3.0980     0.5940    -0.6730 H     1 <1>   0.0800 
 33 H        0.0770     3.5050    -1.0600 H     1 <1>   0.0800 
 34 H        1.5040     3.6270    -2.0060 H     1 <1>   0.0800 
 35 H        3.8720     3.3620    -1.5990 H     1 <1>   0.0800 
 36 H        4.9090     1.9990    -1.3060 H     1 <1>   0.0800 
 37 H        4.0900     2.7500     0.0330 H     1 <1>   0.0800 
 38 H        2.4250     2.0320    -3.2490 H     1 <1>   0.0800 
 39 H        1.7810     0.4770    -2.7500 H     1 <1>   0.0800 
 40 H        3.4860     0.6680    -3.0440 H     1 <1>   0.0800 
 41 H       -3.1000     3.0070    -1.7770 H     1 <1>   0.1500 
 42 H       -2.4160     2.5850     2.4220 H     1 <1>   0.1500 
 43 H       -4.4510     3.8400     2.8740 H     1 <1>   0.1500 
 44 H       -5.8210     4.6870     1.0490 H     1 <1>   0.1500 
 45 H        3.7590     7.5670    -1.1900 H     1 <1>   0.1500 
 46 H        3.0550     7.4930     3.0080 H     1 <1>   0.1500 
 47 H       -6.8320     5.2840    -2.4110 H     1 <1>   0.0800 
 48 H       -6.2520     5.9680    -0.8960 H     1 <1>   0.0800 
 49 H       -7.1640     4.4460    -0.8990 H     1 <1>   0.0800 
 50 H        4.3300     9.5630     3.2560 H     1 <1>   0.1500 
 51 H        5.3250    10.6470     1.2930 H     1 <1>   0.1500 
 52 H        5.2770     9.1610    -2.1220 H     1 <1>   0.0800 
 53 H        6.2190    10.1800    -1.0660 H     1 <1>   0.0800 
 54 H        4.6270    10.6910    -1.5820 H     1 <1>   0.0800 
@<TRIPOS>BOND
  1   1   2  2   
  2   2   3  am  
  3   2   4  1   
  4   3   5  1   
  5   3   6  1   
  6   4   7  1   
  7   4  30  1   
  8   4  31  1   
  9   5   8  1   
 10   5   9  1   
 11   5  32  1   
 12   6  10  1   
 13   6  33  1   
 14   6  34  1   
 15   7  11  1   
 16   8  35  1   
 17   8  36  1   
 18   8  37  1   
 19   9  38  1   
 20   9  39  1   
 21   9  40  1   
 22  10  12  1   
 23  10  13  2   
 24  11  14  ar  
 25  11  15  ar  
 26  12  16  1   
 27  13  17  1   
 28  14  18  ar  
 29  14  41  1   
 30  15  19  ar  
 31  15  42  1   
 32  16  17  2   
 33  17  20  1   
 34  18  21  1   
 35  18  22  ar  
 36  19  22  ar  
 37  19  43  1   
 38  20  23  ar  
 39  20  24  ar  
 40  21  25  1   
 41  22  44  1   
 42  23  26  ar  
 43  23  45  1   
 44  24  27  ar  
 45  24  46  1   
 46  25  47  1   
 47  25  48  1   
 48  25  49  1   
 49  26  28  ar  
 50  26  29  1   
 51  27  28  ar  
 52  27  50  1   
 53  28  51  1   
 54  29  52  1   
 55  29  53  1   
 56  29  54  1   
@<TRIPOS>SUBSTRUCTURE
  1 ****  10 GROUP 4 **** **** 0

# MOE 2024.06 (io_trps.svl 2023.06)
