@<TRIPOS>MOLECULE
2-[(4-Fluoro-benzenesulfonyl)-(4-methoxy-phenyl)-amino]-N-(tetrahydro-furan-2-yl
52 54 1 0 0 
SMALL
USER_CHARGES


@<TRIPOS>ATOM
  1 S        0.2480    -1.1160    -0.1940 S.o2  1 <1>   1.4470 
  2 O        0.5870    -2.1540    -1.1380 O.2   1 <1>  -0.6500 
  3 O        1.1310    -0.8470     0.9200 O.2   1 <1>  -0.6500 
  4 N        0.2000     0.3520    -1.1080 N.am  1 <1>  -0.6930 
  5 C       -1.4760    -1.3030     0.3430 C.ar  1 <1>  -0.0090 
  6 C       -0.3920     1.5070    -0.6070 C.ar  1 <1>   0.1990 
  7 C        1.2230     0.5000    -2.1920 C.3   1 <1>   0.2570 
  8 C       -2.3930    -2.0100    -0.4340 C.ar  1 <1>  -0.1500 
  9 C       -1.9260    -0.7150     1.5240 C.ar  1 <1>  -0.1500 
 10 C        0.0320     2.0920     0.5810 C.ar  1 <1>  -0.1500 
 11 C       -1.4410     2.0960    -1.3020 C.ar  1 <1>  -0.1500 
 12 C        2.5960     1.0130    -1.7380 C.2   1 <1>   0.5690 
 13 C       -3.7180    -2.1330    -0.0490 C.ar  1 <1>  -0.1500 
 14 C       -3.2470    -0.8260     1.9250 C.ar  1 <1>  -0.1500 
 15 C       -0.5820     3.2330     1.0630 C.ar  1 <1>  -0.1500 
 16 C       -2.0600     3.2380    -0.8240 C.ar  1 <1>  -0.1500 
 17 O        3.2440     1.6580    -2.5280 O.2   1 <1>  -0.5700 
 18 N        3.0710     0.7490    -0.4880 N.am  1 <1>  -0.7300 
 19 C       -4.1210    -1.5360     1.1270 C.ar  1 <1>   0.1900 
 20 C       -1.6310     3.8130     0.3690 C.ar  1 <1>   0.0830 
 21 C        4.3910     1.1890     0.0410 C.3   1 <1>   0.1400 
 22 F       -5.3680    -1.6440     1.4960 F     1 <1>  -0.1900 
 23 O       -2.1800     4.9300     0.9160 O.3   1 <1>  -0.3630 
 24 C        4.4920     2.7180     0.1630 C.3   1 <1>   0.2000 
 25 C       -3.2650     5.5820     0.2930 C.3   1 <1>   0.0400 
 26 O        5.6450     3.0500     0.8640 O.3   1 <1>  -0.5600 
 27 C        3.3750     3.3800     0.9620 C.3   1 <1>  -0.1600 
 28 C        5.5420     4.3500     1.3460 C.3   1 <1>   0.1200 
 29 C        4.0510     4.6050     1.5580 C.3   1 <1>  -0.1600 
 30 H        0.8460     1.1940    -2.9220 H     1 <1>   0.0800 
 31 H        1.3650    -0.4380    -2.6960 H     1 <1>   0.0800 
 32 H       -2.0650    -2.4710    -1.3520 H     1 <1>   0.1500 
 33 H       -1.2350    -0.1610     2.1380 H     1 <1>   0.1500 
 34 H        0.8470     1.6610     1.1320 H     1 <1>   0.1500 
 35 H       -1.7750     1.6510    -2.2210 H     1 <1>   0.1500 
 36 H       -4.4260    -2.6800    -0.6470 H     1 <1>   0.1500 
 37 H       -3.5960    -0.3710     2.8360 H     1 <1>   0.1500 
 38 H       -0.2520     3.6840     1.9820 H     1 <1>   0.1500 
 39 H       -2.8680     3.6630    -1.3890 H     1 <1>   0.1500 
 40 H        2.5010     0.1940     0.1680 H     1 <1>   0.3700 
 41 H        5.1660     0.8420    -0.6200 H     1 <1>   0.0800 
 42 H        4.5400     0.7470     1.0110 H     1 <1>   0.0800 
 43 H        4.5700     3.1630    -0.8150 H     1 <1>   0.0800 
 44 H       -3.5400     6.4260     0.9000 H     1 <1>   0.0800 
 45 H       -4.0920     4.8980     0.2240 H     1 <1>   0.0800 
 46 H       -2.9580     5.9190    -0.6810 H     1 <1>   0.0800 
 47 H        3.0470     2.7200     1.7450 H     1 <1>   0.0800 
 48 H        2.5420     3.6340     0.3310 H     1 <1>   0.0800 
 49 H        5.9500     5.0140     0.6030 H     1 <1>   0.0800 
 50 H        6.1050     4.4250     2.2600 H     1 <1>   0.0800 
 51 H        3.8230     4.7080     2.6040 H     1 <1>   0.0800 
 52 H        3.7580     5.5030     1.0440 H     1 <1>   0.0800 
@<TRIPOS>BOND
  1   1   2  2   
  2   1   3  2   
  3   1   4  am  
  4   1   5  1   
  5   4   6  1   
  6   4   7  1   
  7   5   8  ar  
  8   5   9  ar  
  9   6  10  ar  
 10   6  11  ar  
 11   7  12  1   
 12   7  30  1   
 13   7  31  1   
 14   8  13  ar  
 15   8  32  1   
 16   9  14  ar  
 17   9  33  1   
 18  10  15  ar  
 19  10  34  1   
 20  11  16  ar  
 21  11  35  1   
 22  12  17  2   
 23  12  18  am  
 24  13  19  ar  
 25  13  36  1   
 26  14  19  ar  
 27  14  37  1   
 28  15  20  ar  
 29  15  38  1   
 30  16  20  ar  
 31  16  39  1   
 32  18  21  1   
 33  18  40  1   
 34  19  22  1   
 35  20  23  1   
 36  21  24  1   
 37  21  41  1   
 38  21  42  1   
 39  23  25  1   
 40  24  26  1   
 41  24  27  1   
 42  24  43  1   
 43  25  44  1   
 44  25  45  1   
 45  25  46  1   
 46  26  28  1   
 47  27  29  1   
 48  27  47  1   
 49  27  48  1   
 50  28  29  1   
 51  28  49  1   
 52  28  50  1   
 53  29  51  1   
 54  29  52  1   
@<TRIPOS>SUBSTRUCTURE
  1 ****   6 GROUP 4 **** **** 0

# MOE 2024.06 (io_trps.svl 2023.06)
