@<TRIPOS>MOLECULE
2-(4-Dimethylsulfamoyl-piperazin-1-yl)-N-(4-methoxy-phenyl)-acetamide
48 49 1 0 0 
SMALL
USER_CHARGES


@<TRIPOS>ATOM
  1 S        0.0390    -0.3250    -0.6640 S.o2  1 <1>   1.5760 
  2 O        0.6150     0.8870    -1.2030 O.2   1 <1>  -0.6500 
  3 O       -0.0850    -1.5090    -1.4840 O.2   1 <1>  -0.6500 
  4 N       -1.4800     0.0360    -0.0300 N.am  1 <1>  -0.8490 
  5 N        0.8720    -0.7210     0.7550 N.am  1 <1>  -0.8490 
  6 C       -2.1520    -1.1680     0.4850 C.3   1 <1>   0.1960 
  7 C       -2.3230     0.6800    -1.0450 C.3   1 <1>   0.1960 
  8 C        2.1440    -1.3830     0.4620 C.3   1 <1>   0.1160 
  9 C        1.0980     0.4460     1.6120 C.3   1 <1>   0.1160 
 10 C       -3.5460    -0.8340     1.0480 C.3   1 <1>   0.1100 
 11 C       -3.7200     1.0180    -0.4890 C.3   1 <1>   0.1100 
 12 N       -4.4050    -0.1870     0.0260 N.3   1 <1>  -0.8100 
 13 C       -5.7470     0.1570     0.5890 C.3   1 <1>   0.1710 
 14 C       -6.6680    -1.0520     0.7680 C.2   1 <1>   0.5690 
 15 O       -7.5790    -0.9850     1.5580 O.2   1 <1>  -0.5700 
 16 N       -6.3790    -2.1460     0.0030 N.am  1 <1>  -0.5470 
 17 C       -6.9450    -3.4260    -0.1090 C.ar  1 <1>   0.1170 
 18 C       -6.2920    -4.3690    -0.8930 C.ar  1 <1>  -0.1500 
 19 C       -8.1280    -3.7970     0.5230 C.ar  1 <1>  -0.1500 
 20 C       -6.8000    -5.6470    -1.0380 C.ar  1 <1>  -0.1500 
 21 C       -8.6420    -5.0750     0.3820 C.ar  1 <1>  -0.1500 
 22 C       -7.9760    -6.0110    -0.4030 C.ar  1 <1>   0.0820 
 23 O       -8.4060    -7.2860    -0.5960 O.3   1 <1>  -0.3620 
 24 C       -9.5900    -7.7490     0.0150 C.3   1 <1>   0.0400 
 25 H       -1.5550    -1.6050     1.2670 H     1 <1>   0.0800 
 26 H       -2.2600    -1.9000    -0.2980 H     1 <1>   0.0800 
 27 H       -2.4300     0.0330    -1.9010 H     1 <1>   0.0800 
 28 H       -1.8520     1.5910    -1.3740 H     1 <1>   0.0800 
 29 H        1.9670    -2.2810    -0.1060 H     1 <1>   0.0800 
 30 H        2.6410    -1.6540     1.3770 H     1 <1>   0.0800 
 31 H        2.7840    -0.7310    -0.1110 H     1 <1>   0.0800 
 32 H        0.1580     0.9130     1.8530 H     1 <1>   0.0800 
 33 H        1.7240     1.1680     1.1130 H     1 <1>   0.0800 
 34 H        1.5720     0.1440     2.5300 H     1 <1>   0.0800 
 35 H       -3.4270    -0.1820     1.8970 H     1 <1>   0.0800 
 36 H       -4.0070    -1.7450     1.3900 H     1 <1>   0.0800 
 37 H       -4.3090     1.4550    -1.2760 H     1 <1>   0.0800 
 38 H       -3.6140     1.7470     0.2970 H     1 <1>   0.0800 
 39 H       -6.2490     0.8340    -0.0790 H     1 <1>   0.0800 
 40 H       -5.6340     0.6540     1.5370 H     1 <1>   0.0800 
 41 H       -5.5340    -1.9820    -0.5520 H     1 <1>   0.3700 
 42 H       -5.3780    -4.1070    -1.3940 H     1 <1>   0.1500 
 43 H       -8.6590    -3.0890     1.1310 H     1 <1>   0.1500 
 44 H       -6.2900    -6.3730    -1.6450 H     1 <1>   0.1500 
 45 H       -9.5570    -5.3170     0.8880 H     1 <1>   0.1500 
 46 H       -9.7330    -8.7760    -0.2700 H     1 <1>   0.0800 
 47 H      -10.4170    -7.1550    -0.3300 H     1 <1>   0.0800 
 48 H       -9.4820    -7.6790     1.0830 H     1 <1>   0.0800 
@<TRIPOS>BOND
  1   1   2  2   
  2   1   3  2   
  3   1   4  am  
  4   1   5  am  
  5   4   6  1   
  6   4   7  1   
  7   5   8  1   
  8   5   9  1   
  9   6  10  1   
 10   6  25  1   
 11   6  26  1   
 12   7  11  1   
 13   7  27  1   
 14   7  28  1   
 15   8  29  1   
 16   8  30  1   
 17   8  31  1   
 18   9  32  1   
 19   9  33  1   
 20   9  34  1   
 21  10  12  1   
 22  10  35  1   
 23  10  36  1   
 24  11  12  1   
 25  11  37  1   
 26  11  38  1   
 27  12  13  1   
 28  13  14  1   
 29  13  39  1   
 30  13  40  1   
 31  14  15  2   
 32  14  16  am  
 33  16  17  1   
 34  16  41  1   
 35  17  18  ar  
 36  17  19  ar  
 37  18  20  ar  
 38  18  42  1   
 39  19  21  ar  
 40  19  43  1   
 41  20  22  ar  
 42  20  44  1   
 43  21  22  ar  
 44  21  45  1   
 45  22  23  1   
 46  23  24  1   
 47  24  46  1   
 48  24  47  1   
 49  24  48  1   
@<TRIPOS>SUBSTRUCTURE
  1 ****  10 GROUP 4 **** **** 0

# MOE 2024.06 (io_trps.svl 2023.06)
