@<TRIPOS>MOLECULE
2-Propylsulfanyl-pyrimidine-5-carbaldehyde
22 22 1 0 0 
SMALL
USER_CHARGES


@<TRIPOS>ATOM
  1 S        0.1180    -0.2720    -0.0080 S.3   1 <1>  -0.3320 
  2 C        1.5730     0.7550    -0.0070 C.ar  1 <1>   0.7220 
  3 C       -1.2990     0.9120     0.0030 C.3   1 <1>   0.0700 
  4 N        2.7220     0.1000    -0.0140 N.ar  1 <1>  -0.6200 
  5 N        1.3700     2.0650     0.0010 N.ar  1 <1>  -0.6200 
  6 C       -2.5950     0.1000     0.0020 C.3   1 <1>  -0.1600 
  7 C        3.7930     0.8630    -0.0130 C.ar  1 <1>   0.1600 
  8 C        2.4660     2.7900     0.0010 C.ar  1 <1>   0.1600 
  9 C       -3.8240     1.0160     0.0110 C.3   1 <1>  -0.2400 
 10 C        3.7400     2.2470    -0.0050 C.ar  1 <1>   0.0860 
 11 C        4.9220     3.0590    -0.0050 C.2   1 <1>   0.4240 
 12 O        6.0440     2.6280    -0.0100 O.2   1 <1>  -0.5700 
 13 H       -1.2120     1.5250    -0.8770 H     1 <1>   0.0800 
 14 H       -1.2060     1.5160     0.8880 H     1 <1>   0.0800 
 15 H       -2.6170    -0.5350     0.8710 H     1 <1>   0.0800 
 16 H       -2.6220    -0.5260    -0.8730 H     1 <1>   0.0800 
 17 H        4.7560     0.3780    -0.0180 H     1 <1>   0.1500 
 18 H        2.3490     3.8610     0.0070 H     1 <1>   0.1500 
 19 H       -3.8250     1.6370     0.8890 H     1 <1>   0.0800 
 20 H       -4.7220     0.4240     0.0100 H     1 <1>   0.0800 
 21 H       -3.8300     1.6460    -0.8610 H     1 <1>   0.0800 
 22 H        4.7880     4.1260     0.0020 H     1 <1>   0.0600 
@<TRIPOS>BOND
  1   1   2  1   
  2   1   3  1   
  3   2   4  ar  
  4   2   5  ar  
  5   3   6  1   
  6   3  13  1   
  7   3  14  1   
  8   4   7  ar  
  9   5   8  ar  
 10   6   9  1   
 11   6  15  1   
 12   6  16  1   
 13   7  10  ar  
 14   7  17  1   
 15   8  10  ar  
 16   8  18  1   
 17   9  19  1   
 18   9  20  1   
 19   9  21  1   
 20  10  11  1   
 21  11  12  2   
 22  11  22  1   
@<TRIPOS>SUBSTRUCTURE
  1 ****   2 GROUP 4 **** **** 0

# MOE 2024.06 (io_trps.svl 2023.06)
