@<TRIPOS>MOLECULE
(4-Dimethylamino-6-morpholin-4-yl-[1,3,5]triazin-2-yl)-(2-p-tolyloxy-ethyl)-cyan
53 55 1 0 0 
SMALL
USER_CHARGES


@<TRIPOS>ATOM
  1 O       -1.7930    -0.9710     1.6710 O.3   1 <1>  -0.5600 
  2 C       -3.1360    -1.3360     1.5090 C.3   1 <1>   0.1200 
  3 C       -1.6180     0.3770     2.0060 C.3   1 <1>   0.1200 
  4 C       -3.8000    -0.5280     0.3800 C.3   1 <1>   0.2090 
  5 C       -2.1790     1.2980     0.9080 C.3   1 <1>   0.2090 
  6 N       -3.5990     0.9430     0.5830 N.pl3 1 <1>  -0.8380 
  7 C       -4.5760     1.8780     0.3180 C.ar  1 <1>   0.7200 
  8 N       -4.2740     3.1300     0.5280 N.ar  1 <1>  -0.6200 
  9 N       -5.7260     1.4460    -0.1230 N.ar  1 <1>  -0.6200 
 10 C       -5.2310     3.9740     0.2560 C.ar  1 <1>   0.8190 
 11 C       -6.6080     2.3800    -0.3600 C.ar  1 <1>   0.7200 
 12 N       -6.4150     3.6600    -0.1900 N.ar  1 <1>  -0.6200 
 13 N       -4.9520     5.3110     0.4530 N.pl3 1 <1>  -0.6810 
 14 N       -7.8450     1.9870    -0.8310 N.pl3 1 <1>  -0.8380 
 15 C       -5.8240     6.3160    -0.0010 C.1   1 <1>   0.6830 
 16 C       -3.7130     5.7770     1.1360 C.3   1 <1>   0.1960 
 17 C       -8.3000     0.5680    -0.7960 C.3   1 <1>   0.1290 
 18 C       -8.8320     2.9600    -1.3840 C.3   1 <1>   0.1290 
 19 N       -6.4860     7.1690    -0.3600 N.1   1 <1>  -0.5570 
 20 C       -2.5440     5.8310     0.1520 C.3   1 <1>   0.1200 
 21 O       -1.3910     6.2440     0.8520 O.3   1 <1>  -0.3630 
 22 C       -0.1920     6.3490     0.2240 C.ar  1 <1>   0.0820 
 23 C        0.0030     6.0730    -1.1260 C.ar  1 <1>  -0.1500 
 24 C        0.8830     6.7580     0.9960 C.ar  1 <1>  -0.1500 
 25 C        1.2630     6.2070    -1.6840 C.ar  1 <1>  -0.1500 
 26 C        2.1400     6.8910     0.4340 C.ar  1 <1>  -0.1500 
 27 C        2.3370     6.6150    -0.9090 C.ar  1 <1>  -0.1430 
 28 C        3.7160     6.7640    -1.5280 C.3   1 <1>  -0.0970 
 29 H       -3.6520    -1.1730     2.4390 H     1 <1>   0.0800 
 30 H       -3.1650    -2.3860     1.2780 H     1 <1>   0.0800 
 31 H       -0.5640     0.5510     2.1300 H     1 <1>   0.0800 
 32 H       -2.1140     0.5680     2.9420 H     1 <1>   0.0800 
 33 H       -4.8460    -0.7770     0.3550 H     1 <1>   0.0800 
 34 H       -3.3690    -0.8160    -0.5620 H     1 <1>   0.0800 
 35 H       -1.5780     1.1930     0.0210 H     1 <1>   0.0800 
 36 H       -2.0950     2.3160     1.2430 H     1 <1>   0.0800 
 37 H       -3.4720     5.1070     1.9440 H     1 <1>   0.0800 
 38 H       -3.8740     6.7580     1.5510 H     1 <1>   0.0800 
 39 H       -8.0920     0.1000    -1.7420 H     1 <1>   0.0800 
 40 H       -9.3580     0.5250    -0.6040 H     1 <1>   0.0800 
 41 H       -7.7950     0.0240    -0.0170 H     1 <1>   0.0800 
 42 H       -8.3300     3.8050    -1.8230 H     1 <1>   0.0800 
 43 H       -9.4750     3.3090    -0.5950 H     1 <1>   0.0800 
 44 H       -9.4280     2.4900    -2.1470 H     1 <1>   0.0800 
 45 H       -2.7390     6.5450    -0.6290 H     1 <1>   0.0800 
 46 H       -2.3540     4.8570    -0.2610 H     1 <1>   0.0800 
 47 H       -0.8040     5.7550    -1.7570 H     1 <1>   0.1500 
 48 H        0.7290     6.9720     2.0380 H     1 <1>   0.1500 
 49 H        1.4040     5.9930    -2.7290 H     1 <1>   0.1500 
 50 H        2.9640     7.2120     1.0470 H     1 <1>   0.1500 
 51 H        3.8460     6.0600    -2.3310 H     1 <1>   0.0800 
 52 H        4.4800     6.5840    -0.7930 H     1 <1>   0.0800 
 53 H        3.8340     7.7590    -1.9160 H     1 <1>   0.0800 
@<TRIPOS>BOND
  1   1   2  1   
  2   1   3  1   
  3   2   4  1   
  4   2  29  1   
  5   2  30  1   
  6   3   5  1   
  7   3  31  1   
  8   3  32  1   
  9   4   6  1   
 10   4  33  1   
 11   4  34  1   
 12   5   6  1   
 13   5  35  1   
 14   5  36  1   
 15   6   7  1   
 16   7   8  ar  
 17   7   9  ar  
 18   8  10  ar  
 19   9  11  ar  
 20  10  12  ar  
 21  10  13  1   
 22  11  12  ar  
 23  11  14  1   
 24  13  15  1   
 25  13  16  1   
 26  14  17  1   
 27  14  18  1   
 28  15  19  3   
 29  16  20  1   
 30  16  37  1   
 31  16  38  1   
 32  17  39  1   
 33  17  40  1   
 34  17  41  1   
 35  18  42  1   
 36  18  43  1   
 37  18  44  1   
 38  20  21  1   
 39  20  45  1   
 40  20  46  1   
 41  21  22  1   
 42  22  23  ar  
 43  22  24  ar  
 44  23  25  ar  
 45  23  47  1   
 46  24  26  ar  
 47  24  48  1   
 48  25  27  ar  
 49  25  49  1   
 50  26  27  ar  
 51  26  50  1   
 52  27  28  1   
 53  28  51  1   
 54  28  52  1   
 55  28  53  1   
@<TRIPOS>SUBSTRUCTURE
  1 ****   8 GROUP 4 **** **** 0

# MOE 2024.06 (io_trps.svl 2023.06)
