@<TRIPOS>MOLECULE
[3-(4-Chloro-phenyl)-[1,2,4]oxadiazol-5-ylmethyl]-cyclohexyl-amine
38 40 1 0 0 
SMALL
USER_CHARGES


@<TRIPOS>ATOM
  1 CL       0.4370     0.2360    -1.0910 Cl    1 <1>  -0.1770 
  2 C        2.1230     0.3400    -0.6590 C.ar  1 <1>   0.1770 
  3 C        2.6440     1.5450    -0.2320 C.ar  1 <1>  -0.1500 
  4 C        2.9190    -0.7850    -0.7480 C.ar  1 <1>  -0.1500 
  5 C        3.9830     1.6210     0.1100 C.ar  1 <1>  -0.1500 
  6 C        4.2570    -0.6960    -0.4040 C.ar  1 <1>  -0.1500 
  7 C        4.8240     0.5060     0.0340 C.ar  1 <1>   0.0540 
  8 C        6.2290     0.5980     0.3950 C.2   1 <1>   0.4620 
  9 N        6.8400     1.6680     0.7640 N.2   1 <1>  -0.4100 
 10 N        7.0490    -0.4580     0.3810 N.2   1 <1>  -0.5650 
 11 O        8.0780     1.3610     0.9930 O.3   1 <1>  -0.0190 
 12 C        8.1410     0.0790     0.7440 C.2   1 <1>   0.2980 
 13 C        9.4800    -0.6280     0.9280 C.3   1 <1>   0.2900 
 14 N       10.5440    -0.0390     0.0930 N.3   1 <1>  -0.9000 
 15 C       11.8740    -0.5440     0.3990 C.3   1 <1>   0.1900 
 16 C       12.8910     0.4190    -0.2210 C.3   1 <1>  -0.1600 
 17 C       12.0470    -1.9580    -0.1730 C.3   1 <1>  -0.1600 
 18 C       14.3300    -0.0820    -0.0300 C.3   1 <1>  -0.1600 
 19 C       13.4840    -2.4680     0.0100 C.3   1 <1>  -0.1600 
 20 C       14.5020    -1.4950    -0.6000 C.3   1 <1>  -0.1600 
 21 H        2.0070     2.4100    -0.1690 H     1 <1>   0.1500 
 22 H        2.4950    -1.7140    -1.0840 H     1 <1>   0.1500 
 23 H        4.3860     2.5630     0.4420 H     1 <1>   0.1500 
 24 H        4.8750    -1.5760    -0.4770 H     1 <1>   0.1500 
 25 H        9.3530    -1.6650     0.6710 H     1 <1>   0.0800 
 26 H        9.7540    -0.5650     1.9660 H     1 <1>   0.0800 
 27 H       10.5470     0.9750     0.2550 H     1 <1>   0.3600 
 28 H       12.0260    -0.5640     1.4670 H     1 <1>   0.0800 
 29 H       12.7930     1.3890     0.2320 H     1 <1>   0.0800 
 30 H       12.6910     0.5130    -1.2750 H     1 <1>   0.0800 
 31 H       11.8100    -1.9430    -1.2230 H     1 <1>   0.0800 
 32 H       11.3770    -2.6410     0.3150 H     1 <1>   0.0800 
 33 H       14.5710    -0.0880     1.0200 H     1 <1>   0.0800 
 34 H       15.0130     0.5900    -0.5210 H     1 <1>   0.0800 
 35 H       13.5860    -3.4330    -0.4560 H     1 <1>   0.0800 
 36 H       13.6900    -2.5850     1.0600 H     1 <1>   0.0800 
 37 H       15.5000    -1.8460    -0.4040 H     1 <1>   0.0800 
 38 H       14.3670    -1.4650    -1.6680 H     1 <1>   0.0800 
@<TRIPOS>BOND
  1   1   2  1   
  2   2   3  ar  
  3   2   4  ar  
  4   3   5  ar  
  5   3  21  1   
  6   4   6  ar  
  7   4  22  1   
  8   5   7  ar  
  9   5  23  1   
 10   6   7  ar  
 11   6  24  1   
 12   7   8  1   
 13   8   9  2   
 14   8  10  1   
 15   9  11  1   
 16  10  12  2   
 17  11  12  1   
 18  12  13  1   
 19  13  14  1   
 20  13  25  1   
 21  13  26  1   
 22  14  15  1   
 23  14  27  1   
 24  15  16  1   
 25  15  17  1   
 26  15  28  1   
 27  16  18  1   
 28  16  29  1   
 29  16  30  1   
 30  17  19  1   
 31  17  31  1   
 32  17  32  1   
 33  18  20  1   
 34  18  33  1   
 35  18  34  1   
 36  19  20  1   
 37  19  35  1   
 38  19  36  1   
 39  20  37  1   
 40  20  38  1   
@<TRIPOS>SUBSTRUCTURE
  1 ****  12 GROUP 4 **** **** 0

# MOE 2024.06 (io_trps.svl 2023.06)
