@<TRIPOS>MOLECULE
4-Ethyl-5-(1,2,3-trimethyl-1H-indol-5-yl)-4H-[1,2,4]triazole-3-thiol
38 40 1 0 0 
SMALL
USER_CHARGES


@<TRIPOS>ATOM
  1 S       -0.3860    -0.0470     1.5230 S.3   1 <1>  -0.9360 
  2 C       -1.2130     1.3470     1.5040 C.cat 1 <1>   0.7360 
  3 N       -0.8550     2.4330     2.1470 N.pl3 1 <1>  -0.3930 
  4 N       -2.3270     1.5960     0.8470 N.pl3 1 <1>  -0.7640 
  5 N       -1.7410     3.4430     1.9200 N.2   1 <1>  -0.2600 
  6 C       -2.6290     2.9130     1.1360 C.2   1 <1>   0.6120 
  7 C       -2.9880     0.6560    -0.0740 C.3   1 <1>   0.3540 
  8 C       -3.7920     3.5880     0.6070 C.ar  1 <1>   0.0410 
  9 C       -2.6690     1.0500    -1.5120 C.3   1 <1>  -0.2400 
 10 C       -5.0710     3.1090     0.8340 C.ar  1 <1>  -0.1500 
 11 C       -3.6430     4.7600    -0.1630 C.ar  1 <1>  -0.1500 
 12 C       -6.1820     3.7560     0.2920 C.ar  1 <1>   0.0000 
 13 C       -4.7270     5.4110    -0.7010 C.ar  1 <1>  -0.1500 
 14 C       -6.0080     4.8990    -0.4780 C.ar  1 <1>  -0.1520 
 15 C       -7.5710     3.5090     0.3420 C.2   1 <1>  -0.1810 
 16 N       -7.2440     5.3340    -0.8920 N.pl3 1 <1>   0.0480 
 17 C       -8.1870     4.4790    -0.3800 C.2   1 <1>  -0.3320 
 18 C       -8.1680     2.3390     1.1020 C.3   1 <1>  -0.0590 
 19 C       -7.4940     6.5350    -1.7120 C.3   1 <1>   0.0160 
 20 C       -9.6750     4.6770    -0.6350 C.3   1 <1>  -0.0600 
 21 H       -0.0090     2.4470     2.7160 H     1 <1>   0.4500 
 22 H       -4.0520     0.6700     0.0880 H     1 <1>   0.0800 
 23 H       -2.6400    -0.3470     0.1110 H     1 <1>   0.0800 
 24 H       -3.0520     2.0290    -1.7340 H     1 <1>   0.0800 
 25 H       -3.1220     0.3460    -2.1860 H     1 <1>   0.0800 
 26 H       -1.6050     1.0320    -1.6670 H     1 <1>   0.0800 
 27 H       -5.2310     2.2340     1.4360 H     1 <1>   0.1500 
 28 H       -2.6520     5.1450    -0.3310 H     1 <1>   0.1500 
 29 H       -4.5990     6.3030    -1.2870 H     1 <1>   0.1500 
 30 H       -7.7740     1.4170     0.7160 H     1 <1>   0.0800 
 31 H       -9.2360     2.3180     1.0120 H     1 <1>   0.0800 
 32 H       -7.9140     2.4190     2.1440 H     1 <1>   0.0800 
 33 H       -6.6460     6.7220    -2.3450 H     1 <1>   0.0800 
 34 H       -7.6550     7.3760    -1.0640 H     1 <1>   0.0800 
 35 H       -8.3600     6.3800    -2.3280 H     1 <1>   0.0800 
 36 H      -10.2610     3.9430    -0.1160 H     1 <1>   0.0800 
 37 H       -9.8830     4.5910    -1.6860 H     1 <1>   0.0800 
 38 H       -9.9800     5.6500    -0.2940 H     1 <1>   0.0800 
@<TRIPOS>BOND
  1   1   2  1   
  2   2   3  ar  
  3   2   4  ar  
  4   3   5  1   
  5   3  21  1   
  6   4   6  1   
  7   4   7  1   
  8   5   6  2   
  9   6   8  1   
 10   7   9  1   
 11   7  22  1   
 12   7  23  1   
 13   8  10  ar  
 14   8  11  ar  
 15   9  24  1   
 16   9  25  1   
 17   9  26  1   
 18  10  12  ar  
 19  10  27  1   
 20  11  13  ar  
 21  11  28  1   
 22  12  14  ar  
 23  12  15  1   
 24  13  14  ar  
 25  13  29  1   
 26  14  16  1   
 27  15  17  2   
 28  15  18  1   
 29  16  17  1   
 30  16  19  1   
 31  17  20  1   
 32  18  30  1   
 33  18  31  1   
 34  18  32  1   
 35  19  33  1   
 36  19  34  1   
 37  19  35  1   
 38  20  36  1   
 39  20  37  1   
 40  20  38  1   
@<TRIPOS>SUBSTRUCTURE
  1 ****  10 GROUP 4 **** **** 0

# MOE 2024.06 (io_trps.svl 2023.06)
