@<TRIPOS>MOLECULE
8-Fluoro-5-methyl-3-(2-piperidin-1-yl-ethylsulfanyl)-5H-[1,2,4]triazino[5,6-b]in
45 48 1 0 0 
SMALL
USER_CHARGES


@<TRIPOS>ATOM
  1 S       -0.0300     0.3260     0.7930 S.3   1 <1>  -0.3320 
  2 C       -1.7560     0.7890     0.6640 C.ar  1 <1>   0.7220 
  3 C        0.6800     1.3850     2.1480 C.3   1 <1>   0.0700 
  4 N       -2.1460     1.8060     1.4680 N.ar  1 <1>  -0.3100 
  5 N       -2.4580     0.1330    -0.2170 N.ar  1 <1>  -0.5670 
  6 C        0.7470     2.8520     1.6930 C.3   1 <1>   0.3430 
  7 N       -3.3730     2.2340     1.4160 N.ar  1 <1>  -0.2560 
  8 C       -3.7210     0.5690    -0.2480 C.ar  1 <1>   0.1050 
  9 N        1.2610     2.9680     0.2940 N.4   1 <1>  -0.9590 
 10 C       -4.1780     1.6020     0.5520 C.ar  1 <1>   0.2560 
 11 N       -4.7510     0.1130    -1.0310 N.pl3 1 <1>   0.0480 
 12 C        2.7350     2.7530     0.2020 C.3   1 <1>   0.3430 
 13 C        0.8390     4.2540    -0.3300 C.3   1 <1>   0.3430 
 14 C       -5.5520     1.7930     0.2490 C.ar  1 <1>   0.0000 
 15 C       -5.8800     0.8590    -0.7350 C.ar  1 <1>  -0.1520 
 16 C       -4.6830    -0.9970    -2.0010 C.3   1 <1>   0.0160 
 17 C        3.1560     2.7270    -1.2680 C.3   1 <1>  -0.1600 
 18 C        1.2250     4.2550    -1.8100 C.3   1 <1>  -0.1600 
 19 C       -6.5250     2.6720     0.7270 C.ar  1 <1>  -0.1500 
 20 C       -7.1750     0.7840    -1.2580 C.ar  1 <1>  -0.1500 
 21 C        2.7250     4.0000    -2.0080 C.3   1 <1>  -0.1600 
 22 C       -7.7900     2.5800     0.1970 C.ar  1 <1>   0.1900 
 23 C       -8.1350     1.6540    -0.7860 C.ar  1 <1>  -0.1500 
 24 F       -8.7190     3.3930     0.6300 F     1 <1>  -0.1900 
 25 H        1.6590     1.0000     2.3680 H     1 <1>   0.0800 
 26 H        0.0540     1.2720     3.0160 H     1 <1>   0.0800 
 27 H        1.3660     3.4190     2.3680 H     1 <1>   0.0800 
 28 H       -0.2480     3.2660     1.7390 H     1 <1>   0.0800 
 29 H        0.8210     2.2090    -0.2510 H     1 <1>   0.4500 
 30 H        3.0050     1.8180     0.6660 H     1 <1>   0.0800 
 31 H        3.2540     3.5500     0.7110 H     1 <1>   0.0800 
 32 H        1.3210     5.0790     0.1690 H     1 <1>   0.0800 
 33 H       -0.2290     4.3770    -0.2390 H     1 <1>   0.0800 
 34 H       -3.6870    -1.4020    -2.0230 H     1 <1>   0.0800 
 35 H       -4.9410    -0.6320    -2.9780 H     1 <1>   0.0800 
 36 H       -5.3730    -1.7670    -1.7090 H     1 <1>   0.0800 
 37 H        2.7280     1.8620    -1.7460 H     1 <1>   0.0800 
 38 H        4.2270     2.6270    -1.3260 H     1 <1>   0.0800 
 39 H        0.9660     5.2070    -2.2400 H     1 <1>   0.0800 
 40 H        0.6540     3.5040    -2.3280 H     1 <1>   0.0800 
 41 H       -6.2870     3.3950     1.4860 H     1 <1>   0.1500 
 42 H       -7.4180     0.0600    -2.0160 H     1 <1>   0.1500 
 43 H        2.9450     3.9060    -3.0590 H     1 <1>   0.0800 
 44 H        3.2850     4.8410    -1.6320 H     1 <1>   0.0800 
 45 H       -9.1440     1.6330    -1.1590 H     1 <1>   0.1500 
@<TRIPOS>BOND
  1   1   2  1   
  2   1   3  1   
  3   2   4  ar  
  4   2   5  ar  
  5   3   6  1   
  6   3  25  1   
  7   3  26  1   
  8   4   7  ar  
  9   5   8  ar  
 10   6   9  1   
 11   6  27  1   
 12   6  28  1   
 13   7  10  ar  
 14   8  10  ar  
 15   8  11  1   
 16   9  12  1   
 17   9  13  1   
 18   9  29  1   
 19  10  14  1   
 20  11  15  1   
 21  11  16  1   
 22  12  17  1   
 23  12  30  1   
 24  12  31  1   
 25  13  18  1   
 26  13  32  1   
 27  13  33  1   
 28  14  15  ar  
 29  14  19  ar  
 30  15  20  ar  
 31  16  34  1   
 32  16  35  1   
 33  16  36  1   
 34  17  21  1   
 35  17  37  1   
 36  17  38  1   
 37  18  21  1   
 38  18  39  1   
 39  18  40  1   
 40  19  22  ar  
 41  19  41  1   
 42  20  23  ar  
 43  20  42  1   
 44  21  43  1   
 45  21  44  1   
 46  22  23  ar  
 47  22  24  1   
 48  23  45  1   
@<TRIPOS>SUBSTRUCTURE
  1 ****   4 GROUP 4 **** **** 0

# MOE 2024.06 (io_trps.svl 2023.06)
