@<TRIPOS>MOLECULE
Acetic acid 4-{4-[(tetrahydro-furan-2-ylmethyl)-sulfamoyl]-phenylcarbamoyl}-phen
51 53 1 0 0 
SMALL
USER_CHARGES


@<TRIPOS>ATOM
  1 S        0.4990    -0.7050     2.2980 S.o2  1 <1>   1.4470 
  2 O        1.6680    -1.5210     2.5350 O.2   1 <1>  -0.6500 
  3 O        0.1300     0.3410     3.2230 O.2   1 <1>  -0.6500 
  4 N        0.7530     0.1190     0.8620 N.am  1 <1>  -0.9140 
  5 C       -0.9250    -1.7570     1.9100 C.ar  1 <1>  -0.0090 
  6 C        2.1010     0.6850     0.7710 C.3   1 <1>   0.1960 
  7 C       -0.8120    -2.7970     0.9950 C.ar  1 <1>  -0.1500 
  8 C       -2.1680    -1.5500     2.4970 C.ar  1 <1>  -0.1500 
  9 C        2.2610     1.5380    -0.4960 C.3   1 <1>   0.2000 
 10 C       -1.8960    -3.5950     0.6760 C.ar  1 <1>  -0.1500 
 11 C       -3.2540    -2.3460     2.1810 C.ar  1 <1>  -0.1500 
 12 O        3.5070     2.1490    -0.4880 O.3   1 <1>  -0.5600 
 13 C        1.2830     2.7020    -0.6160 C.3   1 <1>  -0.1600 
 14 C       -3.1380    -3.3810     1.2590 C.ar  1 <1>   0.1170 
 15 C        3.5090     3.2580    -1.3300 C.3   1 <1>   0.1200 
 16 C        2.0550     3.7090    -1.4510 C.3   1 <1>  -0.1600 
 17 N       -4.2030    -4.2220     0.9050 N.am  1 <1>  -0.5470 
 18 C       -5.5670    -4.0270     0.9300 C.2   1 <1>   0.5440 
 19 O       -6.0310    -2.9820     1.3370 O.2   1 <1>  -0.5700 
 20 C       -6.4490    -5.0810     0.4690 C.ar  1 <1>   0.0860 
 21 C       -7.6800    -5.3010     1.0900 C.ar  1 <1>  -0.1500 
 22 C       -6.1120    -5.9160    -0.6020 C.ar  1 <1>  -0.1500 
 23 C       -8.5350    -6.3050     0.6750 C.ar  1 <1>  -0.1500 
 24 C       -6.9600    -6.9230    -1.0250 C.ar  1 <1>  -0.1500 
 25 C       -8.1780    -7.1150    -0.3940 C.ar  1 <1>   0.0830 
 26 O       -8.9860    -8.1060    -0.8320 O.3   1 <1>  -0.2320 
 27 C      -10.2930    -7.9850    -1.0510 C.2   1 <1>   0.6590 
 28 O      -11.0290    -8.9220    -0.9080 O.2   1 <1>  -0.5700 
 29 C      -10.8290    -6.6580    -1.5490 C.3   1 <1>  -0.1790 
 30 H        0.1130     0.9070     0.9350 H     1 <1>   0.4200 
 31 H        2.8260    -0.1120     0.7420 H     1 <1>   0.0800 
 32 H        2.2960     1.2980     1.6360 H     1 <1>   0.0800 
 33 H        0.1410    -2.9790     0.5270 H     1 <1>   0.1500 
 34 H       -2.2910    -0.7540     3.2130 H     1 <1>   0.1500 
 35 H        2.2160     0.9130    -1.3720 H     1 <1>   0.0800 
 36 H       -1.7720    -4.3890    -0.0390 H     1 <1>   0.1500 
 37 H       -4.1960    -2.1580     2.6630 H     1 <1>   0.1500 
 38 H        1.0800     3.1100     0.3590 H     1 <1>   0.0800 
 39 H        0.3600     2.4020    -1.0790 H     1 <1>   0.0800 
 40 H        3.9070     2.9560    -2.2840 H     1 <1>   0.0800 
 41 H        4.1350     4.0160    -0.8920 H     1 <1>   0.0800 
 42 H        1.9260     4.7130    -1.0850 H     1 <1>   0.0800 
 43 H        1.7510     3.6710    -2.4820 H     1 <1>   0.0800 
 44 H       -3.9180    -5.1370     0.5650 H     1 <1>   0.3700 
 45 H       -7.9630    -4.6680     1.9150 H     1 <1>   0.1500 
 46 H       -5.1810    -5.7700    -1.1200 H     1 <1>   0.1500 
 47 H       -9.4670    -6.4600     1.1890 H     1 <1>   0.1500 
 48 H       -6.6860    -7.5600    -1.8470 H     1 <1>   0.1500 
 49 H      -10.1590    -6.2390    -2.2760 H     1 <1>   0.0800 
 50 H      -10.9460    -5.9740    -0.7310 H     1 <1>   0.0800 
 51 H      -11.7870    -6.8110    -2.0090 H     1 <1>   0.0800 
@<TRIPOS>BOND
  1   1   2  2   
  2   1   3  2   
  3   1   4  am  
  4   1   5  1   
  5   4   6  1   
  6   4  30  1   
  7   5   7  ar  
  8   5   8  ar  
  9   6   9  1   
 10   6  31  1   
 11   6  32  1   
 12   7  10  ar  
 13   7  33  1   
 14   8  11  ar  
 15   8  34  1   
 16   9  12  1   
 17   9  13  1   
 18   9  35  1   
 19  10  14  ar  
 20  10  36  1   
 21  11  14  ar  
 22  11  37  1   
 23  12  15  1   
 24  13  16  1   
 25  13  38  1   
 26  13  39  1   
 27  14  17  1   
 28  15  16  1   
 29  15  40  1   
 30  15  41  1   
 31  16  42  1   
 32  16  43  1   
 33  17  18  am  
 34  17  44  1   
 35  18  19  2   
 36  18  20  1   
 37  20  21  ar  
 38  20  22  ar  
 39  21  23  ar  
 40  21  45  1   
 41  22  24  ar  
 42  22  46  1   
 43  23  25  ar  
 44  23  47  1   
 45  24  25  ar  
 46  24  48  1   
 47  25  26  1   
 48  26  27  1   
 49  27  28  2   
 50  27  29  1   
 51  29  49  1   
 52  29  50  1   
 53  29  51  1   
@<TRIPOS>SUBSTRUCTURE
  1 ****  14 GROUP 4 **** **** 0

# MOE 2024.06 (io_trps.svl 2023.06)
