@<TRIPOS>MOLECULE
1-(4-Fluoro-benzenesulfonyl)-piperidine-3-carboxylic acid propylamide
43 44 1 0 0 
SMALL
USER_CHARGES


@<TRIPOS>ATOM
  1 S       -0.1680    -0.5110     1.1520 S.o2  1 <1>   1.4470 
  2 O       -1.1660    -1.4500     1.6160 O.2   1 <1>  -0.6500 
  3 O        0.8680    -0.0700     2.0630 O.2   1 <1>  -0.6500 
  4 N        0.6200    -1.2380    -0.1610 N.am  1 <1>  -0.8490 
  5 C       -0.9980     0.9190     0.4000 C.ar  1 <1>  -0.0090 
  6 C        1.7700    -0.4530    -0.6660 C.3   1 <1>   0.1960 
  7 C        0.9040    -2.6590     0.1020 C.3   1 <1>   0.1960 
  8 C       -1.8050     0.7590    -0.7250 C.ar  1 <1>  -0.1500 
  9 C       -0.8490     2.1990     0.9320 C.ar  1 <1>  -0.1500 
 10 C        3.1120    -1.0040    -0.1650 C.3   1 <1>  -0.0190 
 11 C        1.9850    -3.2020    -0.8380 C.3   1 <1>  -0.1600 
 12 C       -2.4430     1.8400    -1.3120 C.ar  1 <1>  -0.1500 
 13 C       -1.4800     3.2920     0.3600 C.ar  1 <1>  -0.1500 
 14 C        4.2500    -0.0900    -0.5880 C.2   1 <1>   0.5690 
 15 C        3.3200    -2.4510    -0.6660 C.3   1 <1>  -0.1600 
 16 C       -2.2670     3.0910    -0.7550 C.ar  1 <1>   0.1900 
 17 O        4.2650     0.3540    -1.7110 O.2   1 <1>  -0.5700 
 18 N        5.2210     0.2010     0.3160 N.am  1 <1>  -0.7300 
 19 F       -2.8650     4.1150    -1.3010 F     1 <1>  -0.1900 
 20 C        6.4000     1.0520     0.0540 C.3   1 <1>   0.1400 
 21 C        7.6660     0.2770     0.4200 C.3   1 <1>  -0.1600 
 22 C        8.9230     1.1160     0.1700 C.3   1 <1>  -0.2400 
 23 H        1.6750     0.5840    -0.3910 H     1 <1>   0.0800 
 24 H        1.7650    -0.4950    -1.7430 H     1 <1>   0.0800 
 25 H       -0.0060    -3.2260    -0.0140 H     1 <1>   0.0800 
 26 H        1.2390    -2.7810     1.1200 H     1 <1>   0.0800 
 27 H       -1.9300    -0.2260    -1.1450 H     1 <1>   0.1500 
 28 H       -0.2320     2.3410     1.8040 H     1 <1>   0.1500 
 29 H        3.0780    -1.0070     0.9090 H     1 <1>   0.0800 
 30 H        1.6350    -3.0980    -1.8510 H     1 <1>   0.0800 
 31 H        2.1330    -4.2510    -0.6530 H     1 <1>   0.0800 
 32 H       -3.0650     1.7180    -2.1810 H     1 <1>   0.1500 
 33 H       -1.3660     4.2810     0.7690 H     1 <1>   0.1500 
 34 H        3.9470    -2.9730     0.0360 H     1 <1>   0.0800 
 35 H        3.8310    -2.4420    -1.6150 H     1 <1>   0.0800 
 36 H        5.1580    -0.1770     1.2620 H     1 <1>   0.3700 
 37 H        6.3280     1.9500     0.6440 H     1 <1>   0.0800 
 38 H        6.4290     1.3320    -0.9870 H     1 <1>   0.0800 
 39 H        7.7170    -0.6170    -0.1780 H     1 <1>   0.0800 
 40 H        7.6310    -0.0030     1.4580 H     1 <1>   0.0800 
 41 H        8.9900     1.3930    -0.8680 H     1 <1>   0.0800 
 42 H        9.8010     0.5500     0.4290 H     1 <1>   0.0800 
 43 H        8.9050     2.0110     0.7680 H     1 <1>   0.0800 
@<TRIPOS>BOND
  1   1   2  2   
  2   1   3  2   
  3   1   4  am  
  4   1   5  1   
  5   4   6  1   
  6   4   7  1   
  7   5   8  ar  
  8   5   9  ar  
  9   6  10  1   
 10   6  23  1   
 11   6  24  1   
 12   7  11  1   
 13   7  25  1   
 14   7  26  1   
 15   8  12  ar  
 16   8  27  1   
 17   9  13  ar  
 18   9  28  1   
 19  10  14  1   
 20  10  15  1   
 21  10  29  1   
 22  11  15  1   
 23  11  30  1   
 24  11  31  1   
 25  12  16  ar  
 26  12  32  1   
 27  13  16  ar  
 28  13  33  1   
 29  14  17  2   
 30  14  18  am  
 31  15  34  1   
 32  15  35  1   
 33  16  19  1   
 34  18  20  1   
 35  18  36  1   
 36  20  21  1   
 37  20  37  1   
 38  20  38  1   
 39  21  22  1   
 40  21  39  1   
 41  21  40  1   
 42  22  41  1   
 43  22  42  1   
 44  22  43  1   
@<TRIPOS>SUBSTRUCTURE
  1 ****   6 GROUP 4 **** **** 0

# MOE 2024.06 (io_trps.svl 2023.06)
