@<TRIPOS>MOLECULE
3-(2-Ethoxy-ethyl)-8-(3-methoxy-propyl)-1,6,7-trimethyl-1H,8H-imidazo[2,1-f]puri
55 57 1 0 0 
SMALL
USER_CHARGES


@<TRIPOS>ATOM
  1 O        1.4390    -0.4410    -0.2600 O.2   1 <1>  -0.5740 
  2 C        2.2230     0.4810    -0.3560 C.2   1 <1>   0.6870 
  3 N        1.7640     1.7640    -0.6360 N.am  1 <1>  -0.4250 
  4 N        3.5800     0.2540    -0.1690 N.am  1 <1>  -0.4410 
  5 C        2.6260     2.8520    -0.6530 C.2   1 <1>   0.7000 
  6 C        0.3070     1.9710    -0.9150 C.3   1 <1>   0.1340 
  7 C        4.4310     1.3390    -0.1960 C.2   1 <1>   0.4210 
  8 C        4.1020    -1.1210     0.0870 C.3   1 <1>   0.0530 
  9 O        2.2030     3.9800    -0.8420 O.2   1 <1>  -0.5740 
 10 C        4.0140     2.6070    -0.4310 C.2   1 <1>   0.2710 
 11 C       -0.4670     2.1760     0.3860 C.3   1 <1>   0.1130 
 12 N        5.7770     1.3400    -0.0030 N.pl3 1 <1>  -0.7030 
 13 N        5.1670     3.4130    -0.3880 N.pl3 1 <1>  -0.6330 
 14 O       -1.7930     2.4260     0.0590 O.3   1 <1>  -0.5640 
 15 C        6.1830     2.6000    -0.1330 C.cat 1 <1>   1.0690 
 16 C        5.6980     4.6790    -0.5210 C.2   1 <1>   0.2350 
 17 C       -2.6220     2.6000     1.1580 C.3   1 <1>   0.1130 
 18 N        7.3500     3.2510    -0.0860 N.pl3 1 <1>  -0.5710 
 19 C        7.0380     4.5810    -0.3350 C.2   1 <1>   0.1580 
 20 C        4.8000     5.8620    -0.8230 C.3   1 <1>  -0.1090 
 21 C       -4.0280     2.8650     0.6370 C.3   1 <1>  -0.2460 
 22 C        8.6800     2.6550     0.2100 C.3   1 <1>   0.1610 
 23 C        8.1070     5.6600    -0.3710 C.3   1 <1>  -0.1090 
 24 C        9.0900     1.6400    -0.8690 C.3   1 <1>  -0.1660 
 25 C        9.2200     0.2110    -0.3330 C.3   1 <1>   0.1130 
 26 O        8.0100    -0.1850     0.2350 O.3   1 <1>  -0.5640 
 27 C        8.0700    -1.4610     0.7970 C.3   1 <1>   0.0330 
 28 H       -0.0910     1.1140    -1.4310 H     1 <1>   0.0730 
 29 H        0.1700     2.8310    -1.5480 H     1 <1>   0.0730 
 30 H        4.2140    -1.2750     1.1460 H     1 <1>   0.0730 
 31 H        5.0530    -1.2570    -0.3980 H     1 <1>   0.0730 
 32 H        3.4210    -1.8620    -0.2990 H     1 <1>   0.0730 
 33 H       -0.0860     3.0270     0.9250 H     1 <1>   0.0730 
 34 H       -0.4250     1.2880     0.9940 H     1 <1>   0.0730 
 35 H        6.4480     0.5700     0.1360 H     1 <1>   0.4450 
 36 H       -2.2670     3.4380     1.7340 H     1 <1>   0.0730 
 37 H       -2.6010     1.7040     1.7560 H     1 <1>   0.0730 
 38 H        4.2880     5.7060    -1.7550 H     1 <1>   0.0730 
 39 H        5.3670     6.7720    -0.8930 H     1 <1>   0.0730 
 40 H        4.0670     5.9750    -0.0450 H     1 <1>   0.0730 
 41 H       -4.0350     3.7530     0.0300 H     1 <1>   0.0730 
 42 H       -4.7020     3.0060     1.4620 H     1 <1>   0.0730 
 43 H       -4.3680     2.0280     0.0540 H     1 <1>   0.0730 
 44 H        8.6480     2.1820     1.1780 H     1 <1>   0.0730 
 45 H        9.4220     3.4330     0.2600 H     1 <1>   0.0730 
 46 H        8.8360     5.4330    -1.1280 H     1 <1>   0.0730 
 47 H        8.6010     5.7240     0.5820 H     1 <1>   0.0730 
 48 H        7.6770     6.6200    -0.5940 H     1 <1>   0.0730 
 49 H       10.0570     1.9260    -1.2450 H     1 <1>   0.0730 
 50 H        8.4170     1.6540    -1.7080 H     1 <1>   0.0730 
 51 H        9.9880     0.1640     0.4220 H     1 <1>   0.0730 
 52 H        9.4650    -0.4690    -1.1330 H     1 <1>   0.0730 
 53 H        8.3080    -2.1790     0.0300 H     1 <1>   0.0730 
 54 H        7.1110    -1.6950     1.2250 H     1 <1>   0.0730 
 55 H        8.8210    -1.4780     1.5690 H     1 <1>   0.0730 
@<TRIPOS>BOND
  1   1   2  2   
  2   2   3  am  
  3   2   4  am  
  4   3   5  am  
  5   3   6  1   
  6   4   7  1   
  7   4   8  1   
  8   5   9  2   
  9   5  10  1   
 10   6  11  1   
 11   6  28  1   
 12   6  29  1   
 13   7  10  2   
 14   7  12  1   
 15   8  30  1   
 16   8  31  1   
 17   8  32  1   
 18  10  13  1   
 19  11  14  1   
 20  11  33  1   
 21  11  34  1   
 22  12  15  ar  
 23  12  35  1   
 24  13  15  ar  
 25  13  16  1   
 26  14  17  1   
 27  15  18  ar  
 28  16  19  2   
 29  16  20  1   
 30  17  21  1   
 31  17  36  1   
 32  17  37  1   
 33  18  19  1   
 34  18  22  1   
 35  19  23  1   
 36  20  38  1   
 37  20  39  1   
 38  20  40  1   
 39  21  41  1   
 40  21  42  1   
 41  21  43  1   
 42  22  24  1   
 43  22  44  1   
 44  22  45  1   
 45  23  46  1   
 46  23  47  1   
 47  23  48  1   
 48  24  25  1   
 49  24  49  1   
 50  24  50  1   
 51  25  26  1   
 52  25  51  1   
 53  25  52  1   
 54  26  27  1   
 55  27  53  1   
 56  27  54  1   
 57  27  55  1   
@<TRIPOS>SUBSTRUCTURE
  1 ****  10 GROUP 4 **** **** 0

# MOE 2024.06 (io_trps.svl 2023.06)
