@<TRIPOS>MOLECULE
1-[1-(4-Fluoro-phenyl)-ethyl]-1H-[1,2,3]triazole-4-carboxylic acid (2-morpholin-
48 50 1 0 0 
SMALL
USER_CHARGES


@<TRIPOS>ATOM
  1 F       -1.7950     0.2460    -0.3860 F     1 <1>  -0.1900 
  2 C       -2.2710     1.4280    -0.0990 C.ar  1 <1>   0.1900 
  3 C       -2.6610     2.2590    -1.1300 C.ar  1 <1>  -0.1500 
  4 C       -2.3670     1.8030     1.2270 C.ar  1 <1>  -0.1500 
  5 C       -3.1650     3.5100    -0.8190 C.ar  1 <1>  -0.1500 
  6 C       -2.8720     3.0580     1.5270 C.ar  1 <1>  -0.1500 
  7 C       -3.2740     3.9170     0.5090 C.ar  1 <1>  -0.1430 
  8 C       -3.8330     5.2980     0.8540 C.3   1 <1>   0.3190 
  9 N       -5.1850     5.4810     0.2390 N.pl3 1 <1>   0.3140 
 10 C       -2.8320     6.3910     0.4450 C.3   1 <1>  -0.2400 
 11 N       -5.5490     6.5370    -0.5050 N.2   1 <1>  -0.4180 
 12 C       -6.2230     4.6520     0.3370 C.2   1 <1>  -0.3020 
 13 N       -6.7680     6.3840    -0.8710 N.2   1 <1>  -0.2270 
 14 C       -7.2300     5.2190    -0.3690 C.2   1 <1>   0.1410 
 15 C       -8.5800     4.7550    -0.6080 C.2   1 <1>   0.7160 
 16 O       -9.0190     3.7410    -0.0910 O.2   1 <1>  -0.5700 
 17 N       -9.4270     5.4700    -1.4110 N.am  1 <1>  -0.7300 
 18 C      -10.6580     4.9740    -2.0960 C.3   1 <1>   0.1400 
 19 C      -11.9050     5.0190    -1.1870 C.3   1 <1>   0.3430 
 20 N      -11.7480     4.1330     0.0030 N.4   1 <1>  -0.9590 
 21 C      -12.0220     2.6860    -0.2940 C.3   1 <1>   0.3430 
 22 C      -12.5270     4.5990     1.1970 C.3   1 <1>   0.3430 
 23 C      -11.8670     1.8220     0.9710 C.3   1 <1>   0.1200 
 24 C      -12.3540     3.6360     2.3880 C.3   1 <1>   0.1200 
 25 O      -12.6660     2.3280     2.0030 O.3   1 <1>  -0.5600 
 26 H       -2.5700     1.9310    -2.1500 H     1 <1>   0.1500 
 27 H       -2.0520     1.1270     2.0010 H     1 <1>   0.1500 
 28 H       -3.4720     4.1660    -1.6170 H     1 <1>   0.1500 
 29 H       -2.9470     3.3550     2.5590 H     1 <1>   0.1500 
 30 H       -3.9710     5.3590     1.9180 H     1 <1>   0.0800 
 31 H       -2.6870     6.3940    -0.6200 H     1 <1>   0.0800 
 32 H       -1.8830     6.2100     0.9160 H     1 <1>   0.0800 
 33 H       -3.1860     7.3580     0.7560 H     1 <1>   0.0800 
 34 H       -6.2030     3.7240     0.8780 H     1 <1>   0.1500 
 35 H       -9.0000     6.3110    -1.8230 H     1 <1>   0.3700 
 36 H      -10.4950     3.9680    -2.4430 H     1 <1>   0.0800 
 37 H      -10.8380     5.5880    -2.9620 H     1 <1>   0.0800 
 38 H      -12.7770     4.7250    -1.7480 H     1 <1>   0.0800 
 39 H      -12.0470     6.0380    -0.8660 H     1 <1>   0.0800 
 40 H      -10.7360     4.1610     0.2500 H     1 <1>   0.4500 
 41 H      -11.3370     2.3300    -1.0460 H     1 <1>   0.0800 
 42 H      -13.0260     2.5700    -0.6670 H     1 <1>   0.0800 
 43 H      -13.5750     4.6520     0.9520 H     1 <1>   0.0800 
 44 H      -12.2010     5.5840     1.4880 H     1 <1>   0.0800 
 45 H      -10.8420     1.8010     1.3010 H     1 <1>   0.0800 
 46 H      -12.1850     0.8130     0.7750 H     1 <1>   0.0800 
 47 H      -13.0210     3.9100     3.1870 H     1 <1>   0.0800 
 48 H      -11.3450     3.6570     2.7600 H     1 <1>   0.0800 
@<TRIPOS>BOND
  1   1   2  1   
  2   2   3  ar  
  3   2   4  ar  
  4   3   5  ar  
  5   3  26  1   
  6   4   6  ar  
  7   4  27  1   
  8   5   7  ar  
  9   5  28  1   
 10   6   7  ar  
 11   6  29  1   
 12   7   8  1   
 13   8   9  1   
 14   8  10  1   
 15   8  30  1   
 16   9  11  1   
 17   9  12  1   
 18  10  31  1   
 19  10  32  1   
 20  10  33  1   
 21  11  13  2   
 22  12  14  2   
 23  12  34  1   
 24  13  14  1   
 25  14  15  1   
 26  15  16  2   
 27  15  17  am  
 28  17  18  1   
 29  17  35  1   
 30  18  19  1   
 31  18  36  1   
 32  18  37  1   
 33  19  20  1   
 34  19  38  1   
 35  19  39  1   
 36  20  21  1   
 37  20  22  1   
 38  20  40  1   
 39  21  23  1   
 40  21  41  1   
 41  21  42  1   
 42  22  24  1   
 43  22  43  1   
 44  22  44  1   
 45  23  25  1   
 46  23  45  1   
 47  23  46  1   
 48  24  25  1   
 49  24  47  1   
 50  24  48  1   
@<TRIPOS>SUBSTRUCTURE
  1 ****  12 GROUP 4 **** **** 0

# MOE 2024.06 (io_trps.svl 2023.06)
