@<TRIPOS>MOLECULE
2-Adamantan-1-yl-N-pyridin-3-ylmethyl-acetamide
45 48 1 0 0 
SMALL
USER_CHARGES


@<TRIPOS>ATOM
  1 O        0.4790    -0.0420     0.6450 O.2   1 <1>  -0.5700 
  2 C        0.6760     1.0470     0.1730 C.2   1 <1>   0.5690 
  3 N        1.7390     1.7630     0.6090 N.am  1 <1>  -0.7300 
  4 C       -0.2620     1.5510    -0.9150 C.3   1 <1>  -0.0990 
  5 C        2.2430     3.0850     0.1940 C.3   1 <1>   0.2840 
  6 C       -1.5030     2.3300    -0.4190 C.3   1 <1>   0.0000 
  7 C        3.7560     3.0340     0.1370 C.ar  1 <1>  -0.1430 
  8 C       -1.1110     3.6070     0.3610 C.3   1 <1>  -0.1600 
  9 C       -2.3830     1.4490     0.5000 C.3   1 <1>  -0.1600 
 10 C       -2.3490     2.7500    -1.6440 C.3   1 <1>  -0.1600 
 11 C        4.3900     2.2640    -0.8280 C.ar  1 <1>   0.1600 
 12 C        4.5290     3.7480     1.0310 C.ar  1 <1>  -0.1500 
 13 C       -2.3640     4.3830     0.8090 C.3   1 <1>  -0.0800 
 14 C       -3.6430     2.2130     0.9480 C.3   1 <1>  -0.0800 
 15 C       -3.6090     3.5210    -1.2070 C.3   1 <1>  -0.0800 
 16 N        5.7010     2.1600    -0.9730 N.ar  1 <1>  -0.6200 
 17 C        5.8970     3.6480     0.8960 C.ar  1 <1>  -0.1500 
 18 C       -3.2190     3.4790     1.7160 C.3   1 <1>  -0.1600 
 19 C       -3.1850     4.7810    -0.4300 C.3   1 <1>  -0.1600 
 20 C       -4.4580     2.6210    -0.2920 C.3   1 <1>  -0.1600 
 21 C        6.4230     2.8530    -0.1080 C.ar  1 <1>   0.1600 
 22 H        2.3070     1.2980     1.3210 H     1 <1>   0.3700 
 23 H       -0.6000     0.6870    -1.4580 H     1 <1>   0.0800 
 24 H        0.2870     2.1480    -1.6140 H     1 <1>   0.0800 
 25 H        1.9240     3.8230     0.9100 H     1 <1>   0.0800 
 26 H        1.8560     3.3590    -0.7710 H     1 <1>   0.0800 
 27 H       -0.5040     4.2440    -0.2580 H     1 <1>   0.0800 
 28 H       -0.5400     3.3450     1.2340 H     1 <1>   0.0800 
 29 H       -1.8280     1.1490     1.3720 H     1 <1>   0.0800 
 30 H       -2.6730     0.5520    -0.0200 H     1 <1>   0.0800 
 31 H       -2.6460     1.8780    -2.2000 H     1 <1>   0.0800 
 32 H       -1.7650     3.3710    -2.3000 H     1 <1>   0.0800 
 33 H        3.7850     1.6990    -1.5170 H     1 <1>   0.1500 
 34 H        4.0920     4.3590     1.8030 H     1 <1>   0.1500 
 35 H       -2.0720     5.2660     1.3510 H     1 <1>   0.0800 
 36 H       -4.2410     1.5840     1.5860 H     1 <1>   0.0800 
 37 H       -4.1830     3.8030    -2.0730 H     1 <1>   0.0800 
 38 H        6.5540     4.1790     1.5610 H     1 <1>   0.1500 
 39 H       -4.0930     4.0140     2.0450 H     1 <1>   0.0800 
 40 H       -2.6580     3.2020     2.5910 H     1 <1>   0.0800 
 41 H       -2.6010     5.4230    -1.0660 H     1 <1>   0.0800 
 42 H       -4.0590     5.3310    -0.1260 H     1 <1>   0.0800 
 43 H       -5.3470     3.1460     0.0130 H     1 <1>   0.0800 
 44 H       -4.7670     1.7420    -0.8300 H     1 <1>   0.0800 
 45 H        7.4940     2.7830    -0.2050 H     1 <1>   0.1500 
@<TRIPOS>BOND
  1   1   2  2   
  2   2   3  am  
  3   2   4  1   
  4   3   5  1   
  5   3  22  1   
  6   4   6  1   
  7   4  23  1   
  8   4  24  1   
  9   5   7  1   
 10   5  25  1   
 11   5  26  1   
 12   6   8  1   
 13   6   9  1   
 14   6  10  1   
 15   7  11  ar  
 16   7  12  ar  
 17   8  13  1   
 18   8  27  1   
 19   8  28  1   
 20   9  14  1   
 21   9  29  1   
 22   9  30  1   
 23  10  15  1   
 24  10  31  1   
 25  10  32  1   
 26  11  16  ar  
 27  11  33  1   
 28  12  17  ar  
 29  12  34  1   
 30  13  18  1   
 31  13  19  1   
 32  13  35  1   
 33  14  18  1   
 34  14  20  1   
 35  14  36  1   
 36  15  19  1   
 37  15  20  1   
 38  15  37  1   
 39  16  21  ar  
 40  17  21  ar  
 41  17  38  1   
 42  18  39  1   
 43  18  40  1   
 44  19  41  1   
 45  19  42  1   
 46  20  43  1   
 47  20  44  1   
 48  21  45  1   
@<TRIPOS>SUBSTRUCTURE
  1 ****   4 GROUP 4 **** **** 0

# MOE 2024.06 (io_trps.svl 2023.06)
