@<TRIPOS>MOLECULE
2-(4-Ethoxy-3-methoxy-phenyl)-5-methyl-7-phenyl-1,3-diaza-tricyclo[3.3.1.1*3,7*]
58 62 1 0 0 
SMALL
USER_CHARGES


@<TRIPOS>ATOM
  1 O       -0.3030    -0.4320     0.5850 O.2   1 <1>  -0.5700 
  2 C        0.8080    -0.8260     0.3960 C.2   1 <1>   0.4480 
  3 C        1.1430    -2.1670    -0.2690 C.3   1 <1>   0.2040 
  4 C        2.0300    -0.0600     0.9110 C.3   1 <1>   0.0610 
  5 C       -0.0400    -2.9030    -0.9250 C.ar  1 <1>  -0.1440 
  6 C        1.8040    -2.9800     0.8560 C.3   1 <1>   0.3430 
  7 C        2.2160    -1.9030    -1.3370 C.3   1 <1>   0.1100 
  8 C        2.6460    -0.9580     1.9950 C.3   1 <1>   0.3430 
  9 C        3.0530     0.0650    -0.2340 C.3   1 <1>   0.1100 
 10 C        1.6920     1.3330     1.4820 C.3   1 <1>  -0.2400 
 11 C       -0.2620    -4.2690    -0.7590 C.ar  1 <1>  -0.1500 
 12 C       -0.9120    -2.1930    -1.7430 C.ar  1 <1>  -0.1500 
 13 N        3.0260    -2.2800     1.3950 N.4   1 <1>  -0.9590 
 14 N        3.4090    -1.2850    -0.7170 N.3   1 <1>  -0.8100 
 15 C       -1.3240    -4.8960    -1.3870 C.ar  1 <1>  -0.1500 
 16 C       -1.9730    -2.8190    -2.3710 C.ar  1 <1>  -0.1500 
 17 C        4.0520    -2.0550     0.3550 C.3   1 <1>   0.8360 
 18 C       -2.1810    -4.1730    -2.1940 C.ar  1 <1>  -0.1500 
 19 C        4.7860    -3.3440    -0.0310 C.ar  1 <1>  -0.1440 
 20 C        6.1310    -3.4000     0.3220 C.ar  1 <1>  -0.1500 
 21 C        4.2400    -4.4520    -0.6800 C.ar  1 <1>  -0.1500 
 22 C        6.9100    -4.5100     0.0530 C.ar  1 <1>   0.0820 
 23 C        5.0080    -5.5740    -0.9430 C.ar  1 <1>  -0.1500 
 24 O        8.2140    -4.4450     0.4150 O.3   1 <1>  -0.3620 
 25 C        6.3360    -5.6230    -0.5650 C.ar  1 <1>   0.0820 
 26 C        9.1720    -4.5490    -0.6180 C.3   1 <1>   0.0400 
 27 O        7.0140    -6.7670    -0.8210 O.3   1 <1>  -0.3630 
 28 C        7.4630    -7.5070     0.2920 C.3   1 <1>   0.1200 
 29 C        8.1140    -8.7870    -0.2240 C.3   1 <1>  -0.2400 
 30 H        2.0770    -3.9520     0.4870 H     1 <1>   0.0800 
 31 H        1.0850    -3.1220     1.6470 H     1 <1>   0.0800 
 32 H        1.8170    -1.2360    -2.0850 H     1 <1>   0.0800 
 33 H        2.4820    -2.8030    -1.8570 H     1 <1>   0.0800 
 34 H        1.9290    -1.1030     2.7880 H     1 <1>   0.0800 
 35 H        3.5160    -0.4750     2.4100 H     1 <1>   0.0800 
 36 H        3.9400     0.5770     0.1030 H     1 <1>   0.0800 
 37 H        2.6370     0.6440    -1.0440 H     1 <1>   0.0800 
 38 H        0.9890     1.2500     2.2940 H     1 <1>   0.0800 
 39 H        1.2390     1.9460     0.7200 H     1 <1>   0.0800 
 40 H        2.5740     1.8340     1.8410 H     1 <1>   0.0800 
 41 H        0.3680    -4.8910    -0.1520 H     1 <1>   0.1500 
 42 H       -0.7860    -1.1350    -1.9020 H     1 <1>   0.1500 
 43 H        3.4800    -2.8780     2.0950 H     1 <1>   0.4500 
 44 H       -1.4890    -5.9510    -1.2520 H     1 <1>   0.1500 
 45 H       -2.6410    -2.2510    -2.9960 H     1 <1>   0.1500 
 46 H        4.8110    -1.4140     0.7760 H     1 <1>   0.0800 
 47 H       -3.0080    -4.6600    -2.6810 H     1 <1>   0.1500 
 48 H        6.6160    -2.5720     0.8110 H     1 <1>   0.1500 
 49 H        3.2200    -4.4940    -1.0040 H     1 <1>   0.1500 
 50 H        4.5820    -6.4260    -1.4440 H     1 <1>   0.1500 
 51 H        8.9290    -3.8440    -1.3940 H     1 <1>   0.0800 
 52 H        9.1710    -5.5490    -1.0110 H     1 <1>   0.0800 
 53 H       10.1380    -4.3220    -0.2050 H     1 <1>   0.0800 
 54 H        6.6140    -7.7320     0.9140 H     1 <1>   0.0800 
 55 H        8.1710    -6.9160     0.8450 H     1 <1>   0.0800 
 56 H        7.4000    -9.3660    -0.7810 H     1 <1>   0.0800 
 57 H        8.4640    -9.3760     0.6040 H     1 <1>   0.0800 
 58 H        8.9520    -8.5470    -0.8530 H     1 <1>   0.0800 
@<TRIPOS>BOND
  1   1   2  2   
  2   2   3  1   
  3   2   4  1   
  4   3   5  1   
  5   3   6  1   
  6   3   7  1   
  7   4   8  1   
  8   4   9  1   
  9   4  10  1   
 10   5  11  ar  
 11   5  12  ar  
 12   6  13  1   
 13   6  30  1   
 14   6  31  1   
 15   7  14  1   
 16   7  32  1   
 17   7  33  1   
 18   8  13  1   
 19   8  34  1   
 20   8  35  1   
 21   9  14  1   
 22   9  36  1   
 23   9  37  1   
 24  10  38  1   
 25  10  39  1   
 26  10  40  1   
 27  11  15  ar  
 28  11  41  1   
 29  12  16  ar  
 30  12  42  1   
 31  13  17  1   
 32  13  43  1   
 33  14  17  1   
 34  15  18  ar  
 35  15  44  1   
 36  16  18  ar  
 37  16  45  1   
 38  17  19  1   
 39  17  46  1   
 40  18  47  1   
 41  19  20  ar  
 42  19  21  ar  
 43  20  22  ar  
 44  20  48  1   
 45  21  23  ar  
 46  21  49  1   
 47  22  24  1   
 48  22  25  ar  
 49  23  25  ar  
 50  23  50  1   
 51  24  26  1   
 52  25  27  1   
 53  26  51  1   
 54  26  52  1   
 55  26  53  1   
 56  27  28  1   
 57  28  29  1   
 58  28  54  1   
 59  28  55  1   
 60  29  56  1   
 61  29  57  1   
 62  29  58  1   
@<TRIPOS>SUBSTRUCTURE
  1 ****  17 GROUP 4 **** **** 0

# MOE 2024.06 (io_trps.svl 2023.06)
