@<TRIPOS>MOLECULE
4-p-Tolyl-tetrahydro-pyran-4-carboxylic acid
31 32 1 0 0 
SMALL
USER_CHARGES


@<TRIPOS>ATOM
  1 O       -1.5610    -0.9260     2.7980 O.co2 1 <1>  -0.9000 
  2 C       -1.0870    -1.1760     1.6780 C.2   1 <1>   0.9060 
  3 O        0.1200    -1.4450     1.5600 O.co2 1 <1>  -0.9000 
  4 C       -2.0250    -1.2090     0.4300 C.3   1 <1>   0.0370 
  5 C       -2.3590     0.2500    -0.0020 C.ar  1 <1>  -0.1440 
  6 C       -1.3560    -2.0150    -0.7250 C.3   1 <1>  -0.1600 
  7 C       -3.3420    -1.9630     0.8130 C.3   1 <1>  -0.1600 
  8 C       -3.0100     1.0800     0.9040 C.ar  1 <1>  -0.1500 
  9 C       -2.0340     0.7960    -1.2420 C.ar  1 <1>  -0.1500 
 10 C       -1.4670    -3.5160    -0.4470 C.3   1 <1>   0.1200 
 11 C       -3.8040    -2.9820    -0.2370 C.3   1 <1>   0.1200 
 12 C       -3.3530     2.3820     0.5840 C.ar  1 <1>  -0.1500 
 13 C       -2.3760     2.0980    -1.5680 C.ar  1 <1>  -0.1500 
 14 O       -2.8080    -3.9350    -0.5030 O.3   1 <1>  -0.5600 
 15 C       -3.0420     2.9000    -0.6590 C.ar  1 <1>  -0.1440 
 16 C       -3.4180     4.3260    -1.0150 C.3   1 <1>  -0.0970 
 17 H       -0.3230    -1.7350    -0.8280 H     1 <1>   0.0800 
 18 H       -1.8360    -1.8380    -1.6680 H     1 <1>   0.0800 
 19 H       -4.1410    -1.2710     0.9960 H     1 <1>   0.0800 
 20 H       -3.1970    -2.5070     1.7300 H     1 <1>   0.0800 
 21 H       -3.2470     0.7080     1.8880 H     1 <1>   0.1500 
 22 H       -1.4990     0.2310    -1.9790 H     1 <1>   0.1500 
 23 H       -1.0820    -3.7450     0.5340 H     1 <1>   0.0800 
 24 H       -0.9150    -4.0820    -1.1760 H     1 <1>   0.0800 
 25 H       -4.0430    -2.4830    -1.1600 H     1 <1>   0.0800 
 26 H       -4.6770    -3.5100     0.1060 H     1 <1>   0.0800 
 27 H       -3.8580     2.9840     1.3160 H     1 <1>   0.1500 
 28 H       -2.1140     2.4830    -2.5370 H     1 <1>   0.1500 
 29 H       -4.4040     4.3450    -1.4420 H     1 <1>   0.0800 
 30 H       -2.7210     4.7320    -1.7260 H     1 <1>   0.0800 
 31 H       -3.4050     4.9450    -0.1360 H     1 <1>   0.0800 
@<TRIPOS>BOND
  1   1   2  ar  
  2   2   3  ar  
  3   2   4  1   
  4   4   5  1   
  5   4   6  1   
  6   4   7  1   
  7   5   8  ar  
  8   5   9  ar  
  9   6  10  1   
 10   6  17  1   
 11   6  18  1   
 12   7  11  1   
 13   7  19  1   
 14   7  20  1   
 15   8  12  ar  
 16   8  21  1   
 17   9  13  ar  
 18   9  22  1   
 19  10  14  1   
 20  10  23  1   
 21  10  24  1   
 22  11  14  1   
 23  11  25  1   
 24  11  26  1   
 25  12  15  ar  
 26  12  27  1   
 27  13  15  ar  
 28  13  28  1   
 29  15  16  1   
 30  16  29  1   
 31  16  30  1   
 32  16  31  1   
@<TRIPOS>SUBSTRUCTURE
  1 ****   5 GROUP 4 **** **** 0

# MOE 2024.06 (io_trps.svl 2023.06)
