@<TRIPOS>MOLECULE
N-Cyclohexyl-2-(4-methyl-6-trifluoromethyl-pyrimidin-2-ylsulfanyl)-acetamide
40 41 1 0 0 
SMALL
USER_CHARGES


@<TRIPOS>ATOM
  1 S       -0.6700     0.6720    -0.2700 S.3   1 <1>  -0.3320 
  2 C        1.0120     1.2530    -0.2140 C.ar  1 <1>   0.7220 
  3 C       -1.5650     1.7660     0.9420 C.3   1 <1>   0.1310 
  4 N        1.8440     0.6100    -1.0100 N.ar  1 <1>  -0.6200 
  5 N        1.2500     2.2570     0.6100 N.ar  1 <1>  -0.6200 
  6 C       -3.0430     1.4210     1.0400 C.2   1 <1>   0.5690 
  7 C        3.1050     1.0280    -0.9830 C.ar  1 <1>   0.1660 
  8 C        2.4950     2.6640     0.6310 C.ar  1 <1>   0.1660 
  9 O       -3.7280     2.0660     1.7960 O.2   1 <1>  -0.5700 
 10 N       -3.5560     0.4140     0.2870 N.am  1 <1>  -0.7300 
 11 C        3.4630     2.0770    -0.1530 C.ar  1 <1>  -0.1500 
 12 C        4.1660     0.3370    -1.8850 C.3   1 <1>   1.1640 
 13 C        2.8230     3.8140     1.5600 C.3   1 <1>  -0.0960 
 14 C       -4.9570    -0.0290     0.2760 C.3   1 <1>   0.2200 
 15 F        5.3810     0.8660    -1.7500 F     1 <1>  -0.3400 
 16 F        4.3070    -0.9570    -1.6170 F     1 <1>  -0.3400 
 17 F        3.8800     0.4240    -3.1800 F     1 <1>  -0.3400 
 18 C       -5.0170    -1.4940     0.7190 C.3   1 <1>  -0.1600 
 19 C       -5.5220     0.1480    -1.1370 C.3   1 <1>  -0.1600 
 20 C       -6.4480    -2.0460     0.6230 C.3   1 <1>  -0.1600 
 21 C       -6.9530    -0.4010    -1.2370 C.3   1 <1>  -0.1600 
 22 C       -7.0170    -1.8680    -0.7910 C.3   1 <1>  -0.1600 
 23 H       -1.4440     2.7800     0.6090 H     1 <1>   0.0800 
 24 H       -1.0930     1.6380     1.8980 H     1 <1>   0.0800 
 25 H       -2.9250    -0.0960    -0.3370 H     1 <1>   0.3700 
 26 H        4.4750     2.4380    -0.1090 H     1 <1>   0.1500 
 27 H        2.5850     3.5390     2.5720 H     1 <1>   0.0800 
 28 H        2.2360     4.6740     1.2900 H     1 <1>   0.0800 
 29 H        3.8640     4.0740     1.5070 H     1 <1>   0.0800 
 30 H       -5.5330     0.5710     0.9630 H     1 <1>   0.0800 
 31 H       -4.6740    -1.5700     1.7360 H     1 <1>   0.0800 
 32 H       -4.3710    -2.0860     0.0950 H     1 <1>   0.0800 
 33 H       -4.8980    -0.3720    -1.8420 H     1 <1>   0.0800 
 34 H       -5.5240     1.1940    -1.3880 H     1 <1>   0.0800 
 35 H       -7.0770    -1.5290     1.3280 H     1 <1>   0.0800 
 36 H       -6.4500    -3.0910     0.8850 H     1 <1>   0.0800 
 37 H       -7.3030    -0.3160    -2.2520 H     1 <1>   0.0800 
 38 H       -7.6050     0.1890    -0.6140 H     1 <1>   0.0800 
 39 H       -8.0380    -2.2070    -0.8130 H     1 <1>   0.0800 
 40 H       -6.4540    -2.4740    -1.4800 H     1 <1>   0.0800 
@<TRIPOS>BOND
  1   1   2  1   
  2   1   3  1   
  3   2   4  ar  
  4   2   5  ar  
  5   3   6  1   
  6   3  23  1   
  7   3  24  1   
  8   4   7  ar  
  9   5   8  ar  
 10   6   9  2   
 11   6  10  am  
 12   7  11  ar  
 13   7  12  1   
 14   8  11  ar  
 15   8  13  1   
 16  10  14  1   
 17  10  25  1   
 18  11  26  1   
 19  12  15  1   
 20  12  16  1   
 21  12  17  1   
 22  13  27  1   
 23  13  28  1   
 24  13  29  1   
 25  14  18  1   
 26  14  19  1   
 27  14  30  1   
 28  18  20  1   
 29  18  31  1   
 30  18  32  1   
 31  19  21  1   
 32  19  33  1   
 33  19  34  1   
 34  20  22  1   
 35  20  35  1   
 36  20  36  1   
 37  21  22  1   
 38  21  37  1   
 39  21  38  1   
 40  22  39  1   
 41  22  40  1   
@<TRIPOS>SUBSTRUCTURE
  1 ****   1 GROUP 4 **** **** 0

# MOE 2024.06 (io_trps.svl 2023.06)
