@<TRIPOS>MOLECULE
2-(4-Methylamino-6-morpholin-4-yl-[1,3,5]triazin-2-ylsulfanyl)-propionic acid me
40 41 1 0 0 
SMALL
USER_CHARGES


@<TRIPOS>ATOM
  1 S       -0.0380     0.0220    -0.0260 S.3   1 <1>  -0.3320 
  2 C       -0.0130    -1.7610    -0.1010 C.ar  1 <1>   0.7220 
  3 C        1.7410     0.5450    -0.1430 C.3   1 <1>   0.2110 
  4 N        1.1570    -2.3230    -0.1440 N.ar  1 <1>  -0.6200 
  5 N       -1.1800    -2.3250    -0.1060 N.ar  1 <1>  -0.6200 
  6 C        1.9280     1.8910     0.5580 C.2   1 <1>   0.6590 
  7 C        2.1230     0.5650    -1.6310 C.3   1 <1>  -0.2400 
  8 C        1.0970    -3.6330    -0.1990 C.ar  1 <1>   0.7200 
  9 C       -1.0990    -3.6280    -0.1680 C.ar  1 <1>   0.7200 
 10 O        2.6690     2.0050     1.5030 O.2   1 <1>  -0.5700 
 11 O        1.2580     2.9290     0.0650 O.3   1 <1>  -0.4300 
 12 N       -0.0080    -4.3350    -0.2170 N.ar  1 <1>  -0.6200 
 13 N        2.2930    -4.3130    -0.2440 N.pl3 1 <1>  -0.8380 
 14 N       -2.2450    -4.3480    -0.1840 N.pl3 1 <1>  -0.8690 
 15 C        1.3530     4.2170     0.6370 C.3   1 <1>   0.0400 
 16 C        2.4010    -5.7870    -0.4870 C.3   1 <1>   0.2090 
 17 C        3.6230    -3.6770     0.0210 C.3   1 <1>   0.2090 
 18 C       -3.6390    -3.8350    -0.1440 C.3   1 <1>   0.1290 
 19 C        3.2540    -6.4580     0.6050 C.3   1 <1>   0.1200 
 20 C        4.4060    -4.4720     1.0810 C.3   1 <1>   0.1200 
 21 O        4.4980    -5.8260     0.7300 O.3   1 <1>  -0.5600 
 22 H        2.3240    -0.1850     0.3870 H     1 <1>   0.0800 
 23 H        1.5010     1.2600    -2.1660 H     1 <1>   0.0800 
 24 H        2.0040    -0.4140    -2.0600 H     1 <1>   0.0800 
 25 H        3.1500     0.8640    -1.7410 H     1 <1>   0.0800 
 26 H       -2.1090    -5.3570    -0.2390 H     1 <1>   0.4000 
 27 H        0.7270     4.8870     0.0760 H     1 <1>   0.0800 
 28 H        2.3780     4.5420     0.5950 H     1 <1>   0.0800 
 29 H        1.0210     4.1670     1.6600 H     1 <1>   0.0800 
 30 H        2.8660    -5.9510    -1.4440 H     1 <1>   0.0800 
 31 H        1.4350    -6.2580    -0.5110 H     1 <1>   0.0800 
 32 H        3.5130    -2.6650     0.3680 H     1 <1>   0.0800 
 33 H        4.1900    -3.6520    -0.8930 H     1 <1>   0.0800 
 34 H       -3.6540    -2.7610    -0.0760 H     1 <1>   0.0800 
 35 H       -4.1490    -4.2420     0.7110 H     1 <1>   0.0800 
 36 H       -4.1580    -4.1310    -1.0390 H     1 <1>   0.0800 
 37 H        3.4330    -7.4880     0.3530 H     1 <1>   0.0800 
 38 H        2.7470    -6.4150     1.5530 H     1 <1>   0.0800 
 39 H        3.9210    -4.3970     2.0380 H     1 <1>   0.0800 
 40 H        5.4060    -4.0870     1.1680 H     1 <1>   0.0800 
@<TRIPOS>BOND
  1   1   2  1   
  2   1   3  1   
  3   2   4  ar  
  4   2   5  ar  
  5   3   6  1   
  6   3   7  1   
  7   3  22  1   
  8   4   8  ar  
  9   5   9  ar  
 10   6  10  2   
 11   6  11  1   
 12   7  23  1   
 13   7  24  1   
 14   7  25  1   
 15   8  12  ar  
 16   8  13  1   
 17   9  12  ar  
 18   9  14  1   
 19  11  15  1   
 20  13  16  1   
 21  13  17  1   
 22  14  18  1   
 23  14  26  1   
 24  15  27  1   
 25  15  28  1   
 26  15  29  1   
 27  16  19  1   
 28  16  30  1   
 29  16  31  1   
 30  17  20  1   
 31  17  32  1   
 32  17  33  1   
 33  18  34  1   
 34  18  35  1   
 35  18  36  1   
 36  19  21  1   
 37  19  37  1   
 38  19  38  1   
 39  20  21  1   
 40  20  39  1   
 41  20  40  1   
@<TRIPOS>SUBSTRUCTURE
  1 ****   4 GROUP 4 **** **** 0

# MOE 2024.06 (io_trps.svl 2023.06)
