@<TRIPOS>MOLECULE
1-(5-Chloro-2-ethoxy-benzenesulfonyl)-piperidine-4-carboxylic acid (pyridin-3-yl
53 55 1 0 0 
SMALL
USER_CHARGES


@<TRIPOS>ATOM
  1 CL      -0.4120     1.3860     2.9970 Cl    1 <1>  -0.1770 
  2 C       -0.0390     2.8860     2.1880 C.ar  1 <1>   0.1770 
  3 C        0.9260     2.9010     1.1990 C.ar  1 <1>  -0.1500 
  4 C       -0.7130     4.0350     2.5510 C.ar  1 <1>  -0.1500 
  5 C        1.2430     4.0790     0.5300 C.ar  1 <1>  -0.0090 
  6 C       -0.4070     5.2180     1.9070 C.ar  1 <1>  -0.1500 
  7 S        2.5170     4.0700    -0.7620 S.o2  1 <1>   1.4470 
  8 C        0.5600     5.2370     0.9090 C.ar  1 <1>   0.0830 
  9 O        2.6330     2.7110    -1.2470 O.2   1 <1>  -0.6500 
 10 O        2.3340     5.1140    -1.7480 O.2   1 <1>  -0.6500 
 11 N        3.9670     4.4130     0.0540 N.am  1 <1>  -0.8490 
 12 O        0.8480     6.4190     0.3310 O.3   1 <1>  -0.3630 
 13 C        4.0330     5.8090     0.4990 C.3   1 <1>   0.1960 
 14 C        5.1230     4.0560    -0.7740 C.3   1 <1>   0.1960 
 15 C       -0.0730     6.9090    -0.6150 C.3   1 <1>   0.1200 
 16 C        5.3020     6.0550     1.3190 C.3   1 <1>  -0.1600 
 17 C        6.4270     4.2500     0.0050 C.3   1 <1>  -0.1600 
 18 C        0.5150     8.1740    -1.2300 C.3   1 <1>  -0.2400 
 19 C        6.5630     5.6900     0.5190 C.3   1 <1>  -0.0190 
 20 C        7.8370     5.8740     1.3420 C.2   1 <1>   0.5690 
 21 O        7.9550     5.3140     2.4040 O.2   1 <1>  -0.5700 
 22 N        8.8210     6.6660     0.8510 N.am  1 <1>  -0.7300 
 23 C       10.1220     6.8770     1.5080 C.3   1 <1>   0.2840 
 24 C       11.1700     7.0480     0.4280 C.ar  1 <1>  -0.1430 
 25 C       11.7350     5.9340    -0.1730 C.ar  1 <1>   0.1600 
 26 C       11.5740     8.3040     0.0190 C.ar  1 <1>  -0.1500 
 27 N       12.6500     5.9710    -1.1290 N.ar  1 <1>  -0.6200 
 28 C       12.5290     8.3600    -0.9740 C.ar  1 <1>  -0.1500 
 29 C       13.0260     7.1820    -1.5050 C.ar  1 <1>   0.1600 
 30 H        1.4320     1.9850     0.9480 H     1 <1>   0.1500 
 31 H       -1.4590     3.9990     3.3260 H     1 <1>   0.1500 
 32 H       -0.9080     6.1300     2.1810 H     1 <1>   0.1500 
 33 H        3.1850     6.0330     1.1230 H     1 <1>   0.0800 
 34 H        4.0080     6.4710    -0.3520 H     1 <1>   0.0800 
 35 H        5.1310     4.6580    -1.6680 H     1 <1>   0.0800 
 36 H        5.0560     3.0210    -1.0680 H     1 <1>   0.0800 
 37 H       -1.0030     7.1180    -0.1160 H     1 <1>   0.0800 
 38 H       -0.2220     6.1550    -1.3690 H     1 <1>   0.0800 
 39 H        5.2540     5.4640     2.2170 H     1 <1>   0.0800 
 40 H        5.3430     7.0900     1.6100 H     1 <1>   0.0800 
 41 H        7.2610     4.0110    -0.6320 H     1 <1>   0.0800 
 42 H        6.4410     3.5630     0.8340 H     1 <1>   0.0800 
 43 H        0.6870     8.9130    -0.4690 H     1 <1>   0.0800 
 44 H       -0.1680     8.5770    -1.9550 H     1 <1>   0.0800 
 45 H        1.4410     7.9420    -1.7260 H     1 <1>   0.0800 
 46 H        6.6150     6.3450    -0.3320 H     1 <1>   0.0800 
 47 H        8.7300     7.1090    -0.0640 H     1 <1>   0.3700 
 48 H       10.3630     6.0350     2.1350 H     1 <1>   0.0800 
 49 H       10.0710     7.7570     2.1270 H     1 <1>   0.0800 
 50 H       11.4140     4.9560     0.1470 H     1 <1>   0.1500 
 51 H       11.1680     9.2020     0.4510 H     1 <1>   0.1500 
 52 H       12.8870     9.3060    -1.3360 H     1 <1>   0.1500 
 53 H       13.7720     7.2390    -2.2800 H     1 <1>   0.1500 
@<TRIPOS>BOND
  1   1   2  1   
  2   2   3  ar  
  3   2   4  ar  
  4   3   5  ar  
  5   3  30  1   
  6   4   6  ar  
  7   4  31  1   
  8   5   7  1   
  9   5   8  ar  
 10   6   8  ar  
 11   6  32  1   
 12   7   9  2   
 13   7  10  2   
 14   7  11  am  
 15   8  12  1   
 16  11  13  1   
 17  11  14  1   
 18  12  15  1   
 19  13  16  1   
 20  13  33  1   
 21  13  34  1   
 22  14  17  1   
 23  14  35  1   
 24  14  36  1   
 25  15  18  1   
 26  15  37  1   
 27  15  38  1   
 28  16  19  1   
 29  16  39  1   
 30  16  40  1   
 31  17  19  1   
 32  17  41  1   
 33  17  42  1   
 34  18  43  1   
 35  18  44  1   
 36  18  45  1   
 37  19  20  1   
 38  19  46  1   
 39  20  21  2   
 40  20  22  am  
 41  22  23  1   
 42  22  47  1   
 43  23  24  1   
 44  23  48  1   
 45  23  49  1   
 46  24  25  ar  
 47  24  26  ar  
 48  25  27  ar  
 49  25  50  1   
 50  26  28  ar  
 51  26  51  1   
 52  27  29  ar  
 53  28  29  ar  
 54  28  52  1   
 55  29  53  1   
@<TRIPOS>SUBSTRUCTURE
  1 ****  16 GROUP 4 **** **** 0

# MOE 2024.06 (io_trps.svl 2023.06)
