@<TRIPOS>MOLECULE
7-(4-Fluoro-benzyl)-1,3-dimethyl-8-(3-methyl-piperidin-1-ylmethyl)-3,7-dihydro-p
56 59 1 0 0 
SMALL
USER_CHARGES


@<TRIPOS>ATOM
  1 F        4.6020    -1.0020    -1.8510 F     1 <1>  -0.1900 
  2 C        4.4170    -2.1030    -1.1750 C.ar  1 <1>   0.1900 
  3 C        5.4730    -2.9810    -1.0300 C.ar  1 <1>  -0.1500 
  4 C        3.1730    -2.3500    -0.6280 C.ar  1 <1>  -0.1500 
  5 C        5.2710    -4.1500    -0.3160 C.ar  1 <1>  -0.1500 
  6 C        2.9820    -3.5220     0.0850 C.ar  1 <1>  -0.1500 
  7 C        4.0250    -4.4300     0.2370 C.ar  1 <1>  -0.1430 
  8 C        3.8080    -5.7230     1.0090 C.3   1 <1>   0.4980 
  9 N        2.9090    -6.6140     0.2180 N.pl3 1 <1>  -0.7640 
 10 C        1.5650    -6.8620     0.5040 C.2   1 <1>   0.2770 
 11 C        3.2210    -7.2970    -0.8800 C.cat 1 <1>   0.6560 
 12 C        0.6380    -6.4260     1.5100 C.2   1 <1>   0.7030 
 13 C        1.1270    -7.7170    -0.4510 C.2   1 <1>   0.4260 
 14 N        2.1550    -7.9800    -1.2990 N.pl3 1 <1>  -0.7000 
 15 C        4.5920    -7.3240    -1.5890 C.3   1 <1>   0.2540 
 16 O        0.9730    -5.6390     2.3780 O.2   1 <1>  -0.5700 
 17 N       -0.6580    -6.9210     1.4680 N.am  1 <1>  -0.4200 
 18 N       -0.1640    -8.2110    -0.5050 N.am  1 <1>  -0.4360 
 19 N        5.7400    -7.5850    -0.6850 N.3   1 <1>  -0.8100 
 20 C       -1.0510    -7.8300     0.4910 C.2   1 <1>   0.6900 
 21 C       -1.6500    -6.5070     2.5100 C.3   1 <1>   0.0600 
 22 C       -0.5850    -9.1580    -1.5810 C.3   1 <1>   0.0600 
 23 C        5.6900    -8.9340    -0.0850 C.3   1 <1>   0.1100 
 24 C        7.0190    -7.3760    -1.3850 C.3   1 <1>   0.1100 
 25 O       -2.1710    -8.2980     0.5150 O.2   1 <1>  -0.5700 
 26 C        6.8020    -9.0920     0.9630 C.3   1 <1>  -0.0800 
 27 C        8.1780    -7.4730    -0.3890 C.3   1 <1>  -0.1600 
 28 C        8.1780    -8.8250     0.3360 C.3   1 <1>  -0.1600 
 29 C        6.7620   -10.4900     1.5910 C.3   1 <1>  -0.2400 
 30 H        6.4280    -2.7480    -1.4650 H     1 <1>   0.1500 
 31 H        2.3790    -1.6360    -0.7560 H     1 <1>   0.1500 
 32 H        6.0920    -4.8370    -0.1910 H     1 <1>   0.1500 
 33 H        2.0170    -3.7170     0.5230 H     1 <1>   0.1500 
 34 H        3.3750    -5.5010     1.9680 H     1 <1>   0.0800 
 35 H        4.7480    -6.2140     1.1920 H     1 <1>   0.0800 
 36 H        2.1040    -8.5960    -2.1110 H     1 <1>   0.4500 
 37 H        4.7280    -6.3660    -2.0580 H     1 <1>   0.0800 
 38 H        4.5760    -8.0680    -2.3650 H     1 <1>   0.0800 
 39 H       -1.3890    -5.5540     2.9370 H     1 <1>   0.0800 
 40 H       -1.6790    -7.2450     3.2930 H     1 <1>   0.0800 
 41 H       -2.6330    -6.4220     2.0780 H     1 <1>   0.0800 
 42 H       -0.2510   -10.1530    -1.3400 H     1 <1>   0.0800 
 43 H       -0.1730    -8.8580    -2.5280 H     1 <1>   0.0800 
 44 H       -1.6580    -9.1730    -1.6760 H     1 <1>   0.0800 
 45 H        5.8080    -9.6820    -0.8520 H     1 <1>   0.0800 
 46 H        4.7420    -9.0900     0.4000 H     1 <1>   0.0800 
 47 H        7.0350    -6.4010    -1.8430 H     1 <1>   0.0800 
 48 H        7.1440    -8.1160    -2.1590 H     1 <1>   0.0800 
 49 H        6.6310    -8.3690     1.7430 H     1 <1>   0.0800 
 50 H        8.0920    -6.6750     0.3280 H     1 <1>   0.0800 
 51 H        9.1100    -7.3460    -0.9100 H     1 <1>   0.0800 
 52 H        8.4120    -9.6030    -0.3700 H     1 <1>   0.0800 
 53 H        8.9380    -8.8270     1.0990 H     1 <1>   0.0800 
 54 H        6.9270   -11.2490     0.8450 H     1 <1>   0.0800 
 55 H        5.8100   -10.6670     2.0590 H     1 <1>   0.0800 
 56 H        7.5270   -10.5800     2.3420 H     1 <1>   0.0800 
@<TRIPOS>BOND
  1   1   2  1   
  2   2   3  ar  
  3   2   4  ar  
  4   3   5  ar  
  5   3  30  1   
  6   4   6  ar  
  7   4  31  1   
  8   5   7  ar  
  9   5  32  1   
 10   6   7  ar  
 11   6  33  1   
 12   7   8  1   
 13   8   9  1   
 14   8  34  1   
 15   8  35  1   
 16   9  10  1   
 17   9  11  ar  
 18  10  12  1   
 19  10  13  2   
 20  11  14  ar  
 21  11  15  1   
 22  12  16  2   
 23  12  17  am  
 24  13  14  1   
 25  13  18  1   
 26  14  36  1   
 27  15  19  1   
 28  15  37  1   
 29  15  38  1   
 30  17  20  am  
 31  17  21  1   
 32  18  20  am  
 33  18  22  1   
 34  19  23  1   
 35  19  24  1   
 36  20  25  2   
 37  21  39  1   
 38  21  40  1   
 39  21  41  1   
 40  22  42  1   
 41  22  43  1   
 42  22  44  1   
 43  23  26  1   
 44  23  45  1   
 45  23  46  1   
 46  24  27  1   
 47  24  47  1   
 48  24  48  1   
 49  26  28  1   
 50  26  29  1   
 51  26  49  1   
 52  27  28  1   
 53  27  50  1   
 54  27  51  1   
 55  28  52  1   
 56  28  53  1   
 57  29  54  1   
 58  29  55  1   
 59  29  56  1   
@<TRIPOS>SUBSTRUCTURE
  1 ****   9 GROUP 4 **** **** 0

# MOE 2024.06 (io_trps.svl 2023.06)
