@<TRIPOS>MOLECULE
3-tert-Butyl-6-furan-2-yl-[1,2,4]triazolo[3,4-b][1,3,4]thiadiazole
29 31 1 0 0 
SMALL
USER_CHARGES


@<TRIPOS>ATOM
  1 S       -0.3170    -0.2410     0.7070 S.3   1 <1>  -0.1970 
  2 C        0.5540     1.2570     0.5120 C.2   1 <1>   0.2420 
  3 C       -1.8440     0.6590     0.4850 C.2   1 <1>   0.6760 
  4 N        1.7870     1.6110     0.5180 N.2   1 <1>  -0.3380 
  5 N       -0.3120     2.2330     0.3110 N.pl3 1 <1>   0.5050 
  6 N       -1.6720     1.9190     0.2910 N.2   1 <1>  -0.6520 
  7 C       -3.0790    -0.0790     0.5390 C.2   1 <1>   0.0550 
  8 N        1.7530     2.9380     0.3040 N.2   1 <1>  -0.3380 
  9 C        0.5050     3.2970     0.1830 C.2   1 <1>   0.0060 
 10 O       -3.0930    -1.3920     0.7490 O.3   1 <1>  -0.2800 
 11 C       -4.3660     0.3490     0.4050 C.2   1 <1>  -0.1500 
 12 C       -0.0020     4.7240    -0.0720 C.3   1 <1>   0.1800 
 13 C       -4.3410    -1.8080     0.7520 C.2   1 <1>  -0.0100 
 14 C       -5.1830    -0.7740     0.5430 C.2   1 <1>  -0.1500 
 15 C       -0.7840     4.7780    -1.3930 C.3   1 <1>  -0.2400 
 16 C       -0.9110     5.1740     1.0810 C.3   1 <1>  -0.2400 
 17 C        1.1720     5.7120    -0.1700 C.3   1 <1>  -0.2400 
 18 H       -4.7090     1.3530     0.2260 H     1 <1>   0.1500 
 19 H       -4.5440    -2.8540     0.9090 H     1 <1>   0.1500 
 20 H       -6.2580    -0.7830     0.4890 H     1 <1>   0.1500 
 21 H       -1.1030     5.7830    -1.6020 H     1 <1>   0.0800 
 22 H       -0.1630     4.4410    -2.2040 H     1 <1>   0.0800 
 23 H       -1.6570     4.1520    -1.3500 H     1 <1>   0.0800 
 24 H       -1.7860     4.5520     1.1490 H     1 <1>   0.0800 
 25 H       -1.2330     6.1900     0.9340 H     1 <1>   0.0800 
 26 H       -0.3800     5.1170     2.0150 H     1 <1>   0.0800 
 27 H        1.8290     5.4330    -0.9750 H     1 <1>   0.0800 
 28 H        1.7410     5.7080     0.7430 H     1 <1>   0.0800 
 29 H        0.8200     6.7120    -0.3480 H     1 <1>   0.0800 
@<TRIPOS>BOND
  1   1   2  1   
  2   1   3  1   
  3   2   4  2   
  4   2   5  1   
  5   3   6  2   
  6   3   7  1   
  7   4   8  1   
  8   5   6  1   
  9   5   9  1   
 10   7  10  1   
 11   7  11  2   
 12   8   9  2   
 13   9  12  1   
 14  10  13  1   
 15  11  14  1   
 16  11  18  1   
 17  12  15  1   
 18  12  16  1   
 19  12  17  1   
 20  13  14  2   
 21  13  19  1   
 22  14  20  1   
 23  15  21  1   
 24  15  22  1   
 25  15  23  1   
 26  16  24  1   
 27  16  25  1   
 28  16  26  1   
 29  17  27  1   
 30  17  28  1   
 31  17  29  1   
@<TRIPOS>SUBSTRUCTURE
  1 ****   6 GROUP 4 **** **** 0

# MOE 2024.06 (io_trps.svl 2023.06)
