@<TRIPOS>MOLECULE
5-(2-Cyclopentyl-ethyl)-3-(4-methoxy-phenyl)-[1,2,4]oxadiazole
40 42 1 0 0 
SMALL
USER_CHARGES


@<TRIPOS>ATOM
  1 O       -0.2190     0.1550    -1.1210 O.3   1 <1>  -0.0190 
  2 N       -1.4710    -0.1000    -0.9010 N.2   1 <1>  -0.4100 
  3 C       -0.1210     1.4460    -0.9350 C.2   1 <1>   0.2980 
  4 C       -2.0540     1.0080    -0.6040 C.2   1 <1>   0.4620 
  5 N       -1.1980     2.0350    -0.6190 N.2   1 <1>  -0.5650 
  6 C        1.2320     2.1090    -1.1100 C.3   1 <1>   0.0200 
  7 C       -3.4640     1.1660    -0.2850 C.ar  1 <1>   0.0540 
  8 C        2.2210     1.6710    -0.0180 C.3   1 <1>  -0.1600 
  9 C       -4.3340     0.0730    -0.2850 C.ar  1 <1>  -0.1500 
 10 C       -4.0110     2.4110     0.0360 C.ar  1 <1>  -0.1500 
 11 C        3.6130     2.2980    -0.1970 C.3   1 <1>  -0.0800 
 12 C       -5.6750     0.2160     0.0180 C.ar  1 <1>  -0.1500 
 13 C       -5.3520     2.5630     0.3400 C.ar  1 <1>  -0.1500 
 14 C        4.6020     1.8330     0.8670 C.3   1 <1>  -0.1600 
 15 C        3.6370     3.8200    -0.0600 C.3   1 <1>  -0.1600 
 16 C       -6.1970     1.4590     0.3320 C.ar  1 <1>   0.0830 
 17 C        5.7150     2.8800     0.8490 C.3   1 <1>  -0.1600 
 18 C        5.0780     4.1700     0.3200 C.3   1 <1>  -0.1600 
 19 O       -7.5210     1.5160     0.6170 O.3   1 <1>  -0.3630 
 20 C       -8.1490     2.7340     0.9490 C.3   1 <1>   0.0400 
 21 H        1.0950     3.1740    -1.0740 H     1 <1>   0.0800 
 22 H        1.6190     1.8530    -2.0800 H     1 <1>   0.0800 
 23 H        2.3190     0.5990    -0.0430 H     1 <1>   0.0800 
 24 H        1.8220     1.9400     0.9460 H     1 <1>   0.0800 
 25 H       -3.9540    -0.9040    -0.5260 H     1 <1>   0.1500 
 26 H       -3.3720     3.2770     0.0470 H     1 <1>   0.1500 
 27 H        4.0100     2.0320    -1.1630 H     1 <1>   0.0800 
 28 H       -6.3290    -0.6370     0.0120 H     1 <1>   0.1500 
 29 H       -5.7190     3.5430     0.5780 H     1 <1>   0.1500 
 30 H        4.9780     0.8440     0.6660 H     1 <1>   0.0800 
 31 H        4.1300     1.8400     1.8350 H     1 <1>   0.0800 
 32 H        2.9820     4.1250     0.7380 H     1 <1>   0.0800 
 33 H        3.3370     4.3130    -0.9690 H     1 <1>   0.0800 
 34 H        6.4950     2.5650     0.1770 H     1 <1>   0.0800 
 35 H        6.1360     3.0170     1.8300 H     1 <1>   0.0800 
 36 H        5.0950     4.9460     1.0660 H     1 <1>   0.0800 
 37 H        5.6180     4.5110    -0.5470 H     1 <1>   0.0800 
 38 H       -9.1890     2.5340     1.1320 H     1 <1>   0.0800 
 39 H       -8.0470     3.4160     0.1240 H     1 <1>   0.0800 
 40 H       -7.6910     3.1320     1.8380 H     1 <1>   0.0800 
@<TRIPOS>BOND
  1   1   2  1   
  2   1   3  1   
  3   2   4  2   
  4   3   5  2   
  5   3   6  1   
  6   4   5  1   
  7   4   7  1   
  8   6   8  1   
  9   6  21  1   
 10   6  22  1   
 11   7   9  ar  
 12   7  10  ar  
 13   8  11  1   
 14   8  23  1   
 15   8  24  1   
 16   9  12  ar  
 17   9  25  1   
 18  10  13  ar  
 19  10  26  1   
 20  11  14  1   
 21  11  15  1   
 22  11  27  1   
 23  12  16  ar  
 24  12  28  1   
 25  13  16  ar  
 26  13  29  1   
 27  14  17  1   
 28  14  30  1   
 29  14  31  1   
 30  15  18  1   
 31  15  32  1   
 32  15  33  1   
 33  16  19  1   
 34  17  18  1   
 35  17  34  1   
 36  17  35  1   
 37  18  36  1   
 38  18  37  1   
 39  19  20  1   
 40  20  38  1   
 41  20  39  1   
 42  20  40  1   
@<TRIPOS>SUBSTRUCTURE
  1 ****   5 GROUP 4 **** **** 0

# MOE 2024.06 (io_trps.svl 2023.06)
