@<TRIPOS>MOLECULE
5-Isopropyl-4-methoxy-2-methyl-N-pyridin-2-yl-benzenesulfonamide
42 43 1 0 0 
SMALL
USER_CHARGES


@<TRIPOS>ATOM
  1 S       -0.2290    -0.2600     1.3270 S.o2  1 <1>   1.4970 
  2 O       -0.5860    -1.5820     1.8060 O.2   1 <1>  -0.6500 
  3 O       -0.5280     0.8780     2.1730 O.2   1 <1>  -0.6500 
  4 N       -1.0130    -0.0310    -0.1320 N.2   1 <1>  -0.6380 
  5 C        1.5330    -0.2430     0.8510 C.ar  1 <1>  -0.0090 
  6 C       -2.2870     0.0010    -0.1310 C.2   1 <1>   0.4860 
  7 C        2.2110     0.9080     0.4400 C.ar  1 <1>  -0.1440 
  8 C        2.2510    -1.4340     0.8770 C.ar  1 <1>  -0.1500 
  9 N       -2.8600     0.1890    -1.3690 N.pl3 1 <1>  -0.5500 
 10 C       -3.2230    -0.1260     0.9580 C.2   1 <1>  -0.1360 
 11 C        3.5490     0.8410     0.0870 C.ar  1 <1>  -0.1500 
 12 C        1.5190     2.2660     0.3690 C.3   1 <1>  -0.0970 
 13 C        3.5900    -1.5200     0.5250 C.ar  1 <1>  -0.1430 
 14 C       -4.2230     0.2600    -1.5840 C.2   1 <1>  -0.0500 
 15 C       -4.5670    -0.0590     0.7670 C.2   1 <1>  -0.1500 
 16 C        4.2490    -0.3610     0.1250 C.ar  1 <1>   0.0830 
 17 C        4.3010    -2.8780     0.5870 C.3   1 <1>   0.0630 
 18 C       -5.0800     0.1400    -0.5410 C.2   1 <1>  -0.1500 
 19 O        5.5620    -0.4460    -0.2170 O.3   1 <1>  -0.3630 
 20 C        3.6510    -3.8810    -0.3730 C.3   1 <1>  -0.2400 
 21 C        4.3110    -3.4270     2.0180 C.3   1 <1>  -0.2400 
 22 C        6.3150     0.6780    -0.6160 C.3   1 <1>   0.0400 
 23 H        1.7400    -2.3290     1.1860 H     1 <1>   0.1500 
 24 H       -2.1920     0.2670    -2.1370 H     1 <1>   0.4000 
 25 H       -2.8460    -0.2770     1.9510 H     1 <1>   0.1500 
 26 H        4.0430     1.7420    -0.2200 H     1 <1>   0.1500 
 27 H        0.6160     2.2030    -0.2110 H     1 <1>   0.0800 
 28 H        2.1520     3.0020    -0.0910 H     1 <1>   0.0800 
 29 H        1.2760     2.6090     1.3590 H     1 <1>   0.0800 
 30 H       -4.5640     0.4110    -2.5950 H     1 <1>   0.1500 
 31 H       -5.2630    -0.1540     1.5820 H     1 <1>   0.1500 
 32 H        5.3280    -2.7700     0.2830 H     1 <1>   0.0800 
 33 H       -6.1470     0.1900    -0.6720 H     1 <1>   0.1500 
 34 H        2.6390    -4.0950    -0.0830 H     1 <1>   0.0800 
 35 H        4.2080    -4.8010    -0.3810 H     1 <1>   0.0800 
 36 H        3.6460    -3.4770    -1.3690 H     1 <1>   0.0800 
 37 H        3.3140    -3.6300     2.3630 H     1 <1>   0.0800 
 38 H        4.7640    -2.7080     2.6780 H     1 <1>   0.0800 
 39 H        4.8820    -4.3370     2.0630 H     1 <1>   0.0800 
 40 H        7.3170     0.3500    -0.8240 H     1 <1>   0.0800 
 41 H        6.3250     1.3940     0.1860 H     1 <1>   0.0800 
 42 H        5.8750     1.0950    -1.5040 H     1 <1>   0.0800 
@<TRIPOS>BOND
  1   1   2  2   
  2   1   3  2   
  3   1   4  1   
  4   1   5  1   
  5   4   6  2   
  6   5   7  ar  
  7   5   8  ar  
  8   6   9  1   
  9   6  10  1   
 10   7  11  ar  
 11   7  12  1   
 12   8  13  ar  
 13   8  23  1   
 14   9  14  1   
 15   9  24  1   
 16  10  15  2   
 17  10  25  1   
 18  11  16  ar  
 19  11  26  1   
 20  12  27  1   
 21  12  28  1   
 22  12  29  1   
 23  13  16  ar  
 24  13  17  1   
 25  14  18  2   
 26  14  30  1   
 27  15  18  1   
 28  15  31  1   
 29  16  19  1   
 30  17  20  1   
 31  17  21  1   
 32  17  32  1   
 33  18  33  1   
 34  19  22  1   
 35  20  34  1   
 36  20  35  1   
 37  20  36  1   
 38  21  37  1   
 39  21  38  1   
 40  21  39  1   
 41  22  40  1   
 42  22  41  1   
 43  22  42  1   
@<TRIPOS>SUBSTRUCTURE
  1 ****   5 GROUP 4 **** **** 0

# MOE 2024.06 (io_trps.svl 2023.06)
