@<TRIPOS>MOLECULE
[8-(3,5-Dimethyl-phenyl)-1,7-dimethyl-2,4-dioxo-1,2,4,8-tetrahydro-imidazo[2,1-f
54 57 1 0 0 
SMALL
USER_CHARGES


@<TRIPOS>ATOM
  1 O        0.7990    -0.6280     1.7670 O.2   1 <1>  -0.5740 
  2 C        1.6910     0.1770     1.6050 C.2   1 <1>   0.6870 
  3 N        1.4470     1.5260     1.8200 N.am  1 <1>  -0.4250 
  4 N        2.9520    -0.2520     1.2080 N.am  1 <1>  -0.4410 
  5 C        2.4430     2.4750     1.6540 C.2   1 <1>   0.7000 
  6 C        0.0200     1.9830     1.9550 C.3   1 <1>   0.1950 
  7 C        3.9430     0.6970     1.0500 C.2   1 <1>   0.4210 
  8 C        3.2190    -1.7010     0.9590 C.3   1 <1>   0.0530 
  9 O        2.2170     3.6570     1.8500 O.2   1 <1>  -0.5740 
 10 C        3.7340     2.0220     1.2550 C.2   1 <1>   0.2710 
 11 C       -0.6810     2.0920     0.6050 C.2   1 <1>   0.6550 
 12 N        5.2430     0.4970     0.6830 N.pl3 1 <1>  -0.7030 
 13 N        4.9570     2.6570     0.9970 N.pl3 1 <1>  -0.6330 
 14 O       -1.8790     2.0210     0.5180 O.2   1 <1>  -0.5740 
 15 O        0.1060     2.2610    -0.4570 O.3   1 <1>  -0.4350 
 16 C        5.8150     1.7040     0.6630 C.cat 1 <1>   1.0690 
 17 C        5.6490     3.8540     0.9420 C.2   1 <1>   0.2230 
 18 C       -0.3930     2.3040    -1.7760 C.3   1 <1>   0.1130 
 19 N        7.0280     2.1940     0.3920 N.pl3 1 <1>  -0.5550 
 20 C        6.9170     3.5680     0.5710 C.2   1 <1>   0.1580 
 21 C       -0.4100     0.8810    -2.3300 C.3   1 <1>  -0.2460 
 22 C        8.1480     1.4400     0.0180 C.ar  1 <1>   0.3050 
 23 C        8.1000     4.4930     0.3550 C.3   1 <1>  -0.1090 
 24 C        8.4140     1.2060    -1.3230 C.ar  1 <1>  -0.1570 
 25 C        8.9770     0.8980     0.9880 C.ar  1 <1>  -0.1570 
 26 C        9.4910     0.4230    -1.6960 C.ar  1 <1>  -0.1500 
 27 C       10.0570     0.1130     0.6260 C.ar  1 <1>  -0.1500 
 28 C       10.3050    -0.1230    -0.7160 C.ar  1 <1>  -0.1570 
 29 C        9.7930     0.1560    -3.1600 C.3   1 <1>  -0.1040 
 30 C       10.9730    -0.4900     1.6760 C.3   1 <1>  -0.1040 
 31 H       -0.0220     2.9420     2.4390 H     1 <1>   0.0730 
 32 H       -0.5280     1.2910     2.5690 H     1 <1>   0.0730 
 33 H        2.3050    -2.2190     0.7210 H     1 <1>   0.0730 
 34 H        3.6460    -2.1480     1.8410 H     1 <1>   0.0730 
 35 H        3.8950    -1.8230     0.1320 H     1 <1>   0.0730 
 36 H        5.7240    -0.3740     0.4620 H     1 <1>   0.4450 
 37 H        5.1870     4.8030     1.1690 H     1 <1>   0.1430 
 38 H        0.2640     2.9270    -2.3570 H     1 <1>   0.0730 
 39 H       -1.3790     2.7380    -1.7750 H     1 <1>   0.0730 
 40 H        0.5790     0.4610    -2.3200 H     1 <1>   0.0730 
 41 H       -0.7660     0.8950    -3.3450 H     1 <1>   0.0730 
 42 H       -1.0730     0.2640    -1.7490 H     1 <1>   0.0730 
 43 H        8.9030     4.2280     1.0200 H     1 <1>   0.0730 
 44 H        7.8200     5.5140     0.5430 H     1 <1>   0.0730 
 45 H        8.4520     4.4140    -0.6580 H     1 <1>   0.0730 
 46 H        7.7790     1.6360    -2.0750 H     1 <1>   0.1430 
 47 H        8.7800     1.0900     2.0270 H     1 <1>   0.1430 
 48 H       11.1440    -0.7340    -1.0030 H     1 <1>   0.1430 
 49 H        9.2260     0.8080    -3.7990 H     1 <1>   0.0730 
 50 H        9.5510    -0.8630    -3.4040 H     1 <1>   0.0730 
 51 H       10.8390     0.3170    -3.3550 H     1 <1>   0.0730 
 52 H       10.7800    -0.0710     2.6480 H     1 <1>   0.0730 
 53 H       12.0010    -0.2950     1.4230 H     1 <1>   0.0730 
 54 H       10.8270    -1.5540     1.7240 H     1 <1>   0.0730 
@<TRIPOS>BOND
  1   1   2  2   
  2   2   3  am  
  3   2   4  am  
  4   3   5  am  
  5   3   6  1   
  6   4   7  1   
  7   4   8  1   
  8   5   9  2   
  9   5  10  1   
 10   6  11  1   
 11   6  31  1   
 12   6  32  1   
 13   7  10  2   
 14   7  12  1   
 15   8  33  1   
 16   8  34  1   
 17   8  35  1   
 18  10  13  1   
 19  11  14  2   
 20  11  15  1   
 21  12  16  ar  
 22  12  36  1   
 23  13  16  ar  
 24  13  17  1   
 25  15  18  1   
 26  16  19  ar  
 27  17  20  2   
 28  17  37  1   
 29  18  21  1   
 30  18  38  1   
 31  18  39  1   
 32  19  20  1   
 33  19  22  1   
 34  20  23  1   
 35  21  40  1   
 36  21  41  1   
 37  21  42  1   
 38  22  24  ar  
 39  22  25  ar  
 40  23  43  1   
 41  23  44  1   
 42  23  45  1   
 43  24  26  ar  
 44  24  46  1   
 45  25  27  ar  
 46  25  47  1   
 47  26  28  ar  
 48  26  29  1   
 49  27  28  ar  
 50  27  30  1   
 51  28  48  1   
 52  29  49  1   
 53  29  50  1   
 54  29  51  1   
 55  30  52  1   
 56  30  53  1   
 57  30  54  1   
@<TRIPOS>SUBSTRUCTURE
  1 ****  12 GROUP 4 **** **** 0

# MOE 2024.06 (io_trps.svl 2023.06)
