@<TRIPOS>MOLECULE
4-(3-Furan-2-ylmethyl-4-oxo-thiazolidin-2-yl)-N-(2-methoxy-ethyl)-benzamide
45 47 1 0 0 
SMALL
USER_CHARGES


@<TRIPOS>ATOM
  1 S       -0.3360    -0.3360    -0.6510 S.3   1 <1>  -0.4600 
  2 C       -0.2600    -2.1160    -0.3410 C.3   1 <1>   0.5940 
  3 C       -1.4310     0.0930     0.7220 C.3   1 <1>   0.1310 
  4 N       -1.0850    -2.3090     0.8640 N.am  1 <1>  -0.6600 
  5 C        1.1920    -2.5310    -0.1110 C.ar  1 <1>  -0.1440 
  6 C       -1.6820    -1.2250     1.4180 C.2   1 <1>   0.5690 
  7 C       -1.2320    -3.6870     1.3910 C.3   1 <1>   0.3200 
  8 C        1.7570    -3.5280    -0.8910 C.ar  1 <1>  -0.1500 
  9 C        1.9640    -1.9460     0.8820 C.ar  1 <1>  -0.1500 
 10 O       -2.3720    -1.2760     2.4070 O.2   1 <1>  -0.5700 
 11 C       -1.9110    -4.5830     0.3670 C.2   1 <1>  -0.0400 
 12 C        3.0640    -3.9280    -0.6840 C.ar  1 <1>  -0.1500 
 13 C        3.2710    -2.3490     1.0850 C.ar  1 <1>  -0.1500 
 14 O       -1.2330    -5.0030    -0.6870 O.3   1 <1>  -0.2800 
 15 C       -3.1710    -5.0680     0.3380 C.2   1 <1>  -0.1500 
 16 C        3.8580    -3.3450     0.3050 C.ar  1 <1>   0.0860 
 17 C       -2.0390    -5.7590    -1.4050 C.2   1 <1>  -0.0100 
 18 C       -3.2560    -5.8400    -0.8270 C.2   1 <1>  -0.1500 
 19 C        5.2350    -3.7510     0.5260 C.2   1 <1>   0.5440 
 20 O        5.7440    -3.6580     1.6250 O.2   1 <1>  -0.5700 
 21 N        5.9980    -4.2270    -0.5040 N.am  1 <1>  -0.7300 
 22 C        7.3910    -4.7290    -0.3710 C.3   1 <1>   0.1400 
 23 C        8.3750    -3.5650    -0.2580 C.3   1 <1>   0.1200 
 24 O        9.6700    -4.0660    -0.3800 O.3   1 <1>  -0.5600 
 25 C       10.6610    -3.1070    -0.1960 C.3   1 <1>   0.0400 
 26 H       -0.6950    -2.6080    -1.1950 H     1 <1>   0.0800 
 27 H       -2.3360     0.5080     0.3200 H     1 <1>   0.0800 
 28 H       -0.9210     0.7900     1.3600 H     1 <1>   0.0800 
 29 H       -1.8250    -3.6710     2.2890 H     1 <1>   0.0800 
 30 H       -0.2650    -4.0890     1.6400 H     1 <1>   0.0800 
 31 H        1.1740    -4.0050    -1.6620 H     1 <1>   0.1500 
 32 H        1.5480    -1.1730     1.5060 H     1 <1>   0.1500 
 33 H        3.4700    -4.7140    -1.2950 H     1 <1>   0.1500 
 34 H        3.8560    -1.8880     1.8620 H     1 <1>   0.1500 
 35 H       -3.9690    -4.9120     1.0430 H     1 <1>   0.1500 
 36 H       -1.6680    -6.2010    -2.3130 H     1 <1>   0.1500 
 37 H       -4.1270    -6.3750    -1.1610 H     1 <1>   0.1500 
 38 H        5.6340    -4.1800    -1.4570 H     1 <1>   0.3700 
 39 H        7.6350    -5.3260    -1.2320 H     1 <1>   0.0800 
 40 H        7.4670    -5.3410     0.5120 H     1 <1>   0.0800 
 41 H        8.2710    -3.0890     0.7020 H     1 <1>   0.0800 
 42 H        8.2120    -2.8550    -1.0490 H     1 <1>   0.0800 
 43 H       11.6160    -3.5860    -0.3160 H     1 <1>   0.0800 
 44 H       10.5800    -2.7000     0.7970 H     1 <1>   0.0800 
 45 H       10.5470    -2.3330    -0.9350 H     1 <1>   0.0800 
@<TRIPOS>BOND
  1   1   2  1   
  2   1   3  1   
  3   2   4  1   
  4   2   5  1   
  5   2  26  1   
  6   3   6  1   
  7   3  27  1   
  8   3  28  1   
  9   4   6  am  
 10   4   7  1   
 11   5   8  ar  
 12   5   9  ar  
 13   6  10  2   
 14   7  11  1   
 15   7  29  1   
 16   7  30  1   
 17   8  12  ar  
 18   8  31  1   
 19   9  13  ar  
 20   9  32  1   
 21  11  14  1   
 22  11  15  2   
 23  12  16  ar  
 24  12  33  1   
 25  13  16  ar  
 26  13  34  1   
 27  14  17  1   
 28  15  18  1   
 29  15  35  1   
 30  16  19  1   
 31  17  18  2   
 32  17  36  1   
 33  18  37  1   
 34  19  20  2   
 35  19  21  am  
 36  21  22  1   
 37  21  38  1   
 38  22  23  1   
 39  22  39  1   
 40  22  40  1   
 41  23  24  1   
 42  23  41  1   
 43  23  42  1   
 44  24  25  1   
 45  25  43  1   
 46  25  44  1   
 47  25  45  1   
@<TRIPOS>SUBSTRUCTURE
  1 ****   5 GROUP 4 **** **** 0

# MOE 2024.06 (io_trps.svl 2023.06)
