@<TRIPOS>MOLECULE
N-(8-Methyl-1-propyl-1H-pyrazolo[3,4-b]quinolin-3-yl)-succinamic acid
44 46 1 0 0 
SMALL
USER_CHARGES


@<TRIPOS>ATOM
  1 O        1.1350    -2.6650     1.3090 O.co2 1 <1>  -0.9000 
  2 C        0.8460    -2.4850     0.1240 C.2   1 <1>   0.9060 
  3 O        1.3970    -1.6470    -0.5920 O.co2 1 <1>  -0.9000 
  4 C       -0.2580    -3.3270    -0.4550 C.3   1 <1>  -0.2660 
  5 C       -1.6320    -2.8520     0.0560 C.3   1 <1>  -0.0990 
  6 C       -2.7300    -3.8690    -0.1760 C.2   1 <1>   0.5690 
  7 O       -3.6210    -3.6100    -0.9480 O.2   1 <1>  -0.5700 
  8 N       -2.6400    -5.0330     0.5170 N.am  1 <1>  -0.4930 
  9 C       -3.4320    -6.1760     0.5340 C.2   1 <1>   0.3520 
 10 N       -2.8800    -7.2870     0.8700 N.2   1 <1>  -0.7070 
 11 C       -4.8210    -6.3000     0.2540 C.ar  1 <1>   0.0000 
 12 N       -3.8770    -8.2120     0.7970 N.pl3 1 <1>   0.3140 
 13 C       -5.0710    -7.6580     0.4310 C.ar  1 <1>   0.1050 
 14 C       -5.8810    -5.4920    -0.0900 C.ar  1 <1>  -0.1500 
 15 C       -3.6440    -9.6380     1.0980 C.3   1 <1>   0.0960 
 16 N       -6.2320    -8.2760     0.2850 N.ar  1 <1>  -0.5670 
 17 C       -7.1310    -6.0820    -0.2660 C.ar  1 <1>   0.0000 
 18 C       -3.2940   -10.4160    -0.1790 C.3   1 <1>  -0.1600 
 19 C       -7.2660    -7.4880    -0.0700 C.ar  1 <1>   0.3100 
 20 C       -8.2680    -5.3250    -0.6320 C.ar  1 <1>  -0.1500 
 21 C       -3.0480   -11.8990     0.1200 C.3   1 <1>  -0.2400 
 22 C       -8.5520    -8.0660    -0.2570 C.ar  1 <1>  -0.1440 
 23 C       -9.4840    -5.9140    -0.8000 C.ar  1 <1>  -0.1500 
 24 C       -9.6260    -7.2960    -0.6110 C.ar  1 <1>  -0.1500 
 25 C       -8.7370    -9.5670    -0.0600 C.3   1 <1>  -0.0970 
 26 H       -0.0630    -4.3400    -0.1620 H     1 <1>   0.0800 
 27 H       -0.2170    -3.2670    -1.5260 H     1 <1>   0.0800 
 28 H       -1.8880    -1.9260    -0.4270 H     1 <1>   0.0800 
 29 H       -1.5710    -2.6600     1.1130 H     1 <1>   0.0800 
 30 H       -1.7610    -5.1750     1.0110 H     1 <1>   0.3700 
 31 H       -5.7580    -4.4340    -0.2210 H     1 <1>   0.1500 
 32 H       -4.5330   -10.0410     1.5470 H     1 <1>   0.0800 
 33 H       -2.8380    -9.7050     1.8060 H     1 <1>   0.0800 
 34 H       -2.4100    -9.9910    -0.6230 H     1 <1>   0.0800 
 35 H       -4.1060   -10.3270    -0.8820 H     1 <1>   0.0800 
 36 H       -8.1470    -4.2660    -0.7770 H     1 <1>   0.1500 
 37 H       -2.2280   -12.0150     0.8070 H     1 <1>   0.0800 
 38 H       -2.8070   -12.4210    -0.7890 H     1 <1>   0.0800 
 39 H       -3.9280   -12.3490     0.5470 H     1 <1>   0.0800 
 40 H      -10.3490    -5.3360    -1.0790 H     1 <1>   0.1500 
 41 H      -10.6010    -7.7290    -0.7530 H     1 <1>   0.1500 
 42 H       -8.4720    -9.8380     0.9460 H     1 <1>   0.0800 
 43 H       -8.1000   -10.1050    -0.7400 H     1 <1>   0.0800 
 44 H       -9.7540    -9.8620    -0.2380 H     1 <1>   0.0800 
@<TRIPOS>BOND
  1   1   2  ar  
  2   2   3  ar  
  3   2   4  1   
  4   4   5  1   
  5   4  26  1   
  6   4  27  1   
  7   5   6  1   
  8   5  28  1   
  9   5  29  1   
 10   6   7  2   
 11   6   8  am  
 12   8   9  1   
 13   8  30  1   
 14   9  10  2   
 15   9  11  1   
 16  10  12  1   
 17  11  13  ar  
 18  11  14  ar  
 19  12  13  1   
 20  12  15  1   
 21  13  16  ar  
 22  14  17  ar  
 23  14  31  1   
 24  15  18  1   
 25  15  32  1   
 26  15  33  1   
 27  16  19  ar  
 28  17  19  ar  
 29  17  20  ar  
 30  18  21  1   
 31  18  34  1   
 32  18  35  1   
 33  19  22  ar  
 34  20  23  ar  
 35  20  36  1   
 36  21  37  1   
 37  21  38  1   
 38  21  39  1   
 39  22  24  ar  
 40  22  25  1   
 41  23  24  ar  
 42  23  40  1   
 43  24  41  1   
 44  25  42  1   
 45  25  43  1   
 46  25  44  1   
@<TRIPOS>SUBSTRUCTURE
  1 ****  11 GROUP 4 **** **** 0

# MOE 2024.06 (io_trps.svl 2023.06)
