@<TRIPOS>MOLECULE
N-{4-[4-(Pyrrolidine-1-carbonyl)-piperazine-1-sulfonyl]-phenyl}-acetamide
50 52 1 0 0 
SMALL
USER_CHARGES


@<TRIPOS>ATOM
  1 S        0.0010    -0.1420    -1.7600 S.o2  1 <1>   1.4470 
  2 O        0.2670    -1.0530    -2.8520 O.2   1 <1>  -0.6500 
  3 O       -0.4620     1.1980    -2.0470 O.2   1 <1>  -0.6500 
  4 N       -1.1760    -0.8770    -0.7870 N.am  1 <1>  -0.8490 
  5 C        1.4580    -0.0800    -0.6790 C.ar  1 <1>  -0.0090 
  6 C       -2.3230    -1.3260    -1.5960 C.3   1 <1>   0.1960 
  7 C       -1.6550     0.0150     0.2870 C.3   1 <1>   0.1960 
  8 C        2.0100     1.1300    -0.2720 C.ar  1 <1>  -0.1500 
  9 C        2.0580    -1.2480    -0.2210 C.ar  1 <1>  -0.1500 
 10 C       -3.3760    -2.0640    -0.7490 C.3   1 <1>   0.1400 
 11 C       -2.6600    -0.7020     1.2040 C.3   1 <1>   0.1400 
 12 C        3.1210     1.1730     0.5510 C.ar  1 <1>  -0.1500 
 13 C        3.1690    -1.2110     0.6030 C.ar  1 <1>  -0.1500 
 14 N       -3.8060    -1.2370     0.4150 N.am  1 <1>  -0.6600 
 15 C        3.7210     0.0020     0.9930 C.ar  1 <1>   0.1170 
 16 C       -4.9790    -0.5330     0.3560 C.2   1 <1>   0.6900 
 17 N        4.8440     0.0670     1.8210 N.am  1 <1>  -0.5470 
 18 O       -4.9680     0.6670     0.5710 O.2   1 <1>  -0.5700 
 19 N       -6.1520    -1.1710     0.0460 N.am  1 <1>  -0.6600 
 20 C        6.0570    -0.5380     1.7250 C.2   1 <1>   0.5690 
 21 C       -7.4230    -0.4290    -0.1260 C.3   1 <1>   0.1400 
 22 C       -6.4190    -2.5700     0.4520 C.3   1 <1>   0.1400 
 23 O        6.8850    -0.3560     2.5770 O.2   1 <1>  -0.5700 
 24 C        6.4000    -1.4220     0.5490 C.3   1 <1>  -0.1790 
 25 C       -8.4930    -1.3360     0.4690 C.3   1 <1>  -0.1600 
 26 C       -7.9280    -2.7440     0.3220 C.3   1 <1>  -0.1600 
 27 H       -1.9830    -1.9940    -2.3690 H     1 <1>   0.0800 
 28 H       -2.7870    -0.4780    -2.0740 H     1 <1>   0.0800 
 29 H       -2.1320     0.8860    -0.1340 H     1 <1>   0.0800 
 30 H       -0.8220     0.3480     0.8820 H     1 <1>   0.0800 
 31 H        1.5650     2.0520    -0.6090 H     1 <1>   0.1500 
 32 H        1.6440    -2.1980    -0.5180 H     1 <1>   0.1500 
 33 H       -2.9620    -2.9900    -0.3920 H     1 <1>   0.0800 
 34 H       -4.2210    -2.2930    -1.3740 H     1 <1>   0.0800 
 35 H       -3.0180    -0.0140     1.9510 H     1 <1>   0.0800 
 36 H       -2.1680    -1.5140     1.7100 H     1 <1>   0.0800 
 37 H        3.5310     2.1220     0.8470 H     1 <1>   0.1500 
 38 H        3.6050    -2.1300     0.9500 H     1 <1>   0.1500 
 39 H        4.8000     0.7160     2.6080 H     1 <1>   0.3700 
 40 H       -7.5970    -0.2780    -1.1770 H     1 <1>   0.0800 
 41 H       -7.4000     0.5250     0.3740 H     1 <1>   0.0800 
 42 H       -6.1110    -2.7030     1.4760 H     1 <1>   0.0800 
 43 H       -5.8930    -3.2640    -0.1780 H     1 <1>   0.0800 
 44 H        6.0200    -2.4110     0.7170 H     1 <1>   0.0800 
 45 H        7.4680    -1.4750     0.4410 H     1 <1>   0.0800 
 46 H        5.9820    -1.0220    -0.3560 H     1 <1>   0.0800 
 47 H       -9.4400    -1.2170    -0.0270 H     1 <1>   0.0800 
 48 H       -8.6100    -1.0960     1.5120 H     1 <1>   0.0800 
 49 H       -8.3170    -3.4220     1.0610 H     1 <1>   0.0800 
 50 H       -8.1530    -3.1270    -0.6590 H     1 <1>   0.0800 
@<TRIPOS>BOND
  1   1   2  2   
  2   1   3  2   
  3   1   4  am  
  4   1   5  1   
  5   4   6  1   
  6   4   7  1   
  7   5   8  ar  
  8   5   9  ar  
  9   6  10  1   
 10   6  27  1   
 11   6  28  1   
 12   7  11  1   
 13   7  29  1   
 14   7  30  1   
 15   8  12  ar  
 16   8  31  1   
 17   9  13  ar  
 18   9  32  1   
 19  10  14  1   
 20  10  33  1   
 21  10  34  1   
 22  11  14  1   
 23  11  35  1   
 24  11  36  1   
 25  12  15  ar  
 26  12  37  1   
 27  13  15  ar  
 28  13  38  1   
 29  14  16  am  
 30  15  17  1   
 31  16  18  2   
 32  16  19  am  
 33  17  20  am  
 34  17  39  1   
 35  19  21  1   
 36  19  22  1   
 37  20  23  2   
 38  20  24  1   
 39  21  25  1   
 40  21  40  1   
 41  21  41  1   
 42  22  26  1   
 43  22  42  1   
 44  22  43  1   
 45  24  44  1   
 46  24  45  1   
 47  24  46  1   
 48  25  26  1   
 49  25  47  1   
 50  25  48  1   
 51  26  49  1   
 52  26  50  1   
@<TRIPOS>SUBSTRUCTURE
  1 ****   4 GROUP 4 **** **** 0

# MOE 2024.06 (io_trps.svl 2023.06)
