@<TRIPOS>MOLECULE
(5-Phenyl-isoxazol-3-yl)-(1,3,3-trimethyl-6-aza-bicyclo[3.2.1]oct-6-yl)-methanon
48 51 1 0 0 
SMALL
USER_CHARGES


@<TRIPOS>ATOM
  1 O        1.1490    -1.4420     1.6530 O.2   1 <1>  -0.5700 
  2 C        1.1170    -2.0650     0.6020 C.2   1 <1>   0.7160 
  3 N        2.3140    -2.5820     0.1460 N.am  1 <1>  -0.6600 
  4 C       -0.1670    -2.2230    -0.0750 C.2   1 <1>   0.2030 
  5 C        2.5440    -3.4090    -1.0580 C.3   1 <1>   0.2200 
  6 C        3.5880    -2.4600     0.9000 C.3   1 <1>   0.1400 
  7 N       -0.4210    -2.7610    -1.2330 N.2   1 <1>  -0.4100 
  8 C       -1.3700    -1.7950     0.4580 C.2   1 <1>  -0.1500 
  9 C        2.2300    -4.8870    -0.7580 C.3   1 <1>  -0.1600 
 10 C        4.0430    -3.2710    -1.2810 C.3   1 <1>  -0.1600 
 11 C        4.5660    -3.3740     0.1470 C.3   1 <1>   0.0000 
 12 O       -1.7040    -2.7140    -1.4860 O.3   1 <1>  -0.0190 
 13 C       -2.2960    -2.1250    -0.4590 C.2   1 <1>   0.0870 
 14 C        3.0360    -5.5080     0.4200 C.3   1 <1>   0.0000 
 15 C        4.4410    -4.8540     0.5930 C.3   1 <1>  -0.1600 
 16 C        6.0180    -2.8920     0.2630 C.3   1 <1>  -0.2400 
 17 C       -3.7310    -1.9330    -0.4600 C.ar  1 <1>   0.0530 
 18 C        3.2260    -7.0100     0.1420 C.3   1 <1>  -0.2400 
 19 C        2.2260    -5.4210     1.7300 C.3   1 <1>  -0.2400 
 20 C       -4.5350    -2.4390    -1.4820 C.ar  1 <1>  -0.1500 
 21 C       -4.3670    -1.2330     0.5660 C.ar  1 <1>  -0.1500 
 22 C       -5.9060    -2.2560    -1.4820 C.ar  1 <1>  -0.1500 
 23 C       -5.7380    -1.0480     0.5730 C.ar  1 <1>  -0.1500 
 24 C       -6.5110    -1.5590    -0.4530 C.ar  1 <1>  -0.1500 
 25 H        1.9940    -3.0460    -1.9090 H     1 <1>   0.0800 
 26 H        3.4720    -2.7510     1.9290 H     1 <1>   0.0800 
 27 H        3.9150    -1.4350     0.8590 H     1 <1>   0.0800 
 28 H       -1.4850    -1.3090     1.4080 H     1 <1>   0.1500 
 29 H        2.4500    -5.4310    -1.6590 H     1 <1>   0.0800 
 30 H        1.1740    -5.0020    -0.5920 H     1 <1>   0.0800 
 31 H        4.2540    -2.3040    -1.7040 H     1 <1>   0.0800 
 32 H        4.4370    -4.0310    -1.9310 H     1 <1>   0.0800 
 33 H        4.7580    -4.9460     1.6170 H     1 <1>   0.0800 
 34 H        5.1510    -5.4140     0.0090 H     1 <1>   0.0800 
 35 H        6.1070    -1.8740    -0.0730 H     1 <1>   0.0800 
 36 H        6.6670    -3.5050    -0.3380 H     1 <1>   0.0800 
 37 H        6.3470    -2.9430     1.2860 H     1 <1>   0.0800 
 38 H        3.7850    -7.1640    -0.7640 H     1 <1>   0.0800 
 39 H        2.2730    -7.4980     0.0350 H     1 <1>   0.0800 
 40 H        3.7590    -7.4790     0.9500 H     1 <1>   0.0800 
 41 H        2.0110    -4.4100     2.0110 H     1 <1>   0.0800 
 42 H        2.7640    -5.8810     2.5390 H     1 <1>   0.0800 
 43 H        1.2850    -5.9320     1.6240 H     1 <1>   0.0800 
 44 H       -4.0840    -2.9840    -2.2920 H     1 <1>   0.1500 
 45 H       -3.7870    -0.8250     1.3730 H     1 <1>   0.1500 
 46 H       -6.5030    -2.6570    -2.2830 H     1 <1>   0.1500 
 47 H       -6.2050    -0.5040     1.3760 H     1 <1>   0.1500 
 48 H       -7.5780    -1.4160    -0.4500 H     1 <1>   0.1500 
@<TRIPOS>BOND
  1   1   2  2   
  2   2   3  am  
  3   2   4  1   
  4   3   5  1   
  5   3   6  1   
  6   4   7  2   
  7   4   8  1   
  8   5   9  1   
  9   5  10  1   
 10   5  25  1   
 11   6  11  1   
 12   6  26  1   
 13   6  27  1   
 14   7  12  1   
 15   8  13  2   
 16   8  28  1   
 17   9  14  1   
 18   9  29  1   
 19   9  30  1   
 20  10  11  1   
 21  10  31  1   
 22  10  32  1   
 23  11  15  1   
 24  11  16  1   
 25  12  13  1   
 26  13  17  1   
 27  14  15  1   
 28  14  18  1   
 29  14  19  1   
 30  15  33  1   
 31  15  34  1   
 32  16  35  1   
 33  16  36  1   
 34  16  37  1   
 35  17  20  ar  
 36  17  21  ar  
 37  18  38  1   
 38  18  39  1   
 39  18  40  1   
 40  19  41  1   
 41  19  42  1   
 42  19  43  1   
 43  20  22  ar  
 44  20  44  1   
 45  21  23  ar  
 46  21  45  1   
 47  22  24  ar  
 48  22  46  1   
 49  23  24  ar  
 50  23  47  1   
 51  24  48  1   
@<TRIPOS>SUBSTRUCTURE
  1 ****   4 GROUP 4 **** **** 0

# MOE 2024.06 (io_trps.svl 2023.06)
