@<TRIPOS>MOLECULE
3-Ethyl-6-p-tolyloxymethyl-[1,2,4]triazolo[3,4-b][1,3,4]thiadiazole
33 35 1 0 0 
SMALL
USER_CHARGES


@<TRIPOS>ATOM
  1 S       -0.2440    -0.2140     0.0750 S.3   1 <1>  -0.1970 
  2 C        0.5610     1.3400     0.0640 C.2   1 <1>   0.2420 
  3 C       -1.8000     0.6440     0.0410 C.2   1 <1>   0.5300 
  4 N        1.7770     1.7550     0.0750 N.2   1 <1>  -0.3380 
  5 N       -0.3540     2.2920     0.0370 N.pl3 1 <1>   0.5050 
  6 N       -1.6990     1.9150     0.0230 N.2   1 <1>  -0.6520 
  7 C       -3.0270    -0.2600     0.0370 C.3   1 <1>   0.1810 
  8 N        1.6710     3.0980     0.0530 N.2   1 <1>  -0.3380 
  9 C        0.4050     3.3990     0.0310 C.2   1 <1>   0.0060 
 10 O       -4.2220     0.4970     0.0080 O.3   1 <1>  -0.3630 
 11 C       -0.2080     4.7930     0.0020 C.3   1 <1>   0.0200 
 12 C       -5.4360    -0.1070    -0.0010 C.ar  1 <1>   0.0830 
 13 C        0.8410     5.9120     0.0000 C.3   1 <1>  -0.2400 
 14 C       -5.6200    -1.4880     0.0180 C.ar  1 <1>  -0.1500 
 15 C       -6.5440     0.7240    -0.0310 C.ar  1 <1>  -0.1500 
 16 C       -6.8990    -2.0160     0.0060 C.ar  1 <1>  -0.1500 
 17 C       -7.8210     0.1920    -0.0430 C.ar  1 <1>  -0.1500 
 18 C       -8.0050    -1.1810    -0.0260 C.ar  1 <1>  -0.1430 
 19 C       -9.4070    -1.7640    -0.0380 C.3   1 <1>  -0.0970 
 20 H       -3.0330    -0.8610     0.9270 H     1 <1>   0.0800 
 21 H       -3.0080    -0.8880    -0.8350 H     1 <1>   0.0800 
 22 H       -0.8450     4.9100     0.8600 H     1 <1>   0.0800 
 23 H       -0.8210     4.8840    -0.8780 H     1 <1>   0.0800 
 24 H        1.4530     5.8490     0.8830 H     1 <1>   0.0800 
 25 H        0.3610     6.8740    -0.0210 H     1 <1>   0.0800 
 26 H        1.4770     5.8230    -0.8630 H     1 <1>   0.0800 
 27 H       -4.7900    -2.1670     0.0420 H     1 <1>   0.1500 
 28 H       -6.3990     1.7890    -0.0450 H     1 <1>   0.1500 
 29 H       -7.0340    -3.0830     0.0220 H     1 <1>   0.1500 
 30 H       -8.6700     0.8520    -0.0650 H     1 <1>   0.1500 
 31 H       -9.4110    -2.7260    -0.5190 H     1 <1>   0.0800 
 32 H      -10.0790    -1.1160    -0.5710 H     1 <1>   0.0800 
 33 H       -9.7610    -1.8780     0.9710 H     1 <1>   0.0800 
@<TRIPOS>BOND
  1   1   2  1   
  2   1   3  1   
  3   2   4  2   
  4   2   5  1   
  5   3   6  2   
  6   3   7  1   
  7   4   8  1   
  8   5   6  1   
  9   5   9  1   
 10   7  10  1   
 11   7  20  1   
 12   7  21  1   
 13   8   9  2   
 14   9  11  1   
 15  10  12  1   
 16  11  13  1   
 17  11  22  1   
 18  11  23  1   
 19  12  14  ar  
 20  12  15  ar  
 21  13  24  1   
 22  13  25  1   
 23  13  26  1   
 24  14  16  ar  
 25  14  27  1   
 26  15  17  ar  
 27  15  28  1   
 28  16  18  ar  
 29  16  29  1   
 30  17  18  ar  
 31  17  30  1   
 32  18  19  1   
 33  19  31  1   
 34  19  32  1   
 35  19  33  1   
@<TRIPOS>SUBSTRUCTURE
  1 ****   3 GROUP 4 **** **** 0

# MOE 2024.06 (io_trps.svl 2023.06)
