@<TRIPOS>MOLECULE
1-Imidazol-1-ylmethyl-2,2-dimethyl-propylamine
30 30 1 0 0 
SMALL
USER_CHARGES


@<TRIPOS>ATOM
  1 N        0.1420    -0.2190     0.1760 N.2   1 <1>  -0.5650 
  2 C        0.2450    -1.2530    -0.5860 C.2   1 <1>   0.0360 
  3 C       -0.9140    -0.4920     0.9630 C.2   1 <1>   0.0770 
  4 N       -0.6610    -2.2180    -0.3150 N.pl3 1 <1>   0.0480 
  5 C       -1.4100    -1.7170     0.6850 C.2   1 <1>  -0.3020 
  6 C       -0.5970    -3.6220    -0.7480 C.3   1 <1>   0.0960 
  7 C       -0.0300    -4.4800     0.4090 C.3   1 <1>   0.4230 
  8 N        1.1050    -3.7890     1.0950 N.4   1 <1>  -0.8530 
  9 C        0.3840    -5.9250    -0.0090 C.3   1 <1>   0.0000 
 10 C        0.7650    -6.7450     1.2410 C.3   1 <1>  -0.2400 
 11 C       -0.7960    -6.6490    -0.6870 C.3   1 <1>  -0.2400 
 12 C        1.5830    -5.9500    -0.9800 C.3   1 <1>  -0.2400 
 13 H        0.9950    -1.3560    -1.3540 H     1 <1>   0.1500 
 14 H       -1.2640     0.2200     1.6950 H     1 <1>   0.1500 
 15 H       -2.2420    -2.2280     1.1380 H     1 <1>   0.1500 
 16 H        0.0220    -3.6880    -1.6230 H     1 <1>   0.0800 
 17 H       -1.5870    -3.9520    -1.0090 H     1 <1>   0.0800 
 18 H       -0.8300    -4.5820     1.1250 H     1 <1>   0.0800 
 19 H        1.9460    -3.7860     0.5100 H     1 <1>   0.4500 
 20 H        1.3330    -4.2530     1.9800 H     1 <1>   0.4500 
 21 H        0.8570    -2.8060     1.2980 H     1 <1>   0.4500 
 22 H       -0.0390    -6.7520     1.9580 H     1 <1>   0.0800 
 23 H        1.6510    -6.3690     1.7180 H     1 <1>   0.0800 
 24 H        0.9640    -7.7690     0.9690 H     1 <1>   0.0800 
 25 H       -0.5420    -7.6760    -0.8900 H     1 <1>   0.0800 
 26 H       -1.0570    -6.1960    -1.6270 H     1 <1>   0.0800 
 27 H       -1.6660    -6.6490    -0.0520 H     1 <1>   0.0800 
 28 H        1.8250    -6.9680    -1.2360 H     1 <1>   0.0800 
 29 H        2.4650    -5.5160    -0.5450 H     1 <1>   0.0800 
 30 H        1.3640    -5.4390    -1.9010 H     1 <1>   0.0800 
@<TRIPOS>BOND
  1   1   2  2   
  2   1   3  1   
  3   2   4  1   
  4   2  13  1   
  5   3   5  2   
  6   3  14  1   
  7   4   5  1   
  8   4   6  1   
  9   5  15  1   
 10   6   7  1   
 11   6  16  1   
 12   6  17  1   
 13   7   8  1   
 14   7   9  1   
 15   7  18  1   
 16   8  19  1   
 17   8  20  1   
 18   8  21  1   
 19   9  10  1   
 20   9  11  1   
 21   9  12  1   
 22  10  22  1   
 23  10  23  1   
 24  10  24  1   
 25  11  25  1   
 26  11  26  1   
 27  11  27  1   
 28  12  28  1   
 29  12  29  1   
 30  12  30  1   
@<TRIPOS>SUBSTRUCTURE
  1 ****   7 GROUP 4 **** **** 0

# MOE 2024.06 (io_trps.svl 2023.06)
