@<TRIPOS>MOLECULE
4-[3-(3,4-Dimethoxy-phenyl)-[1,2,4]oxadiazol-5-yl]-N-(2,4-dimethyl-phenyl)-butyr
54 56 1 0 0 
SMALL
USER_CHARGES


@<TRIPOS>ATOM
  1 O        0.1690    -1.1240    -0.8140 O.2   1 <1>  -0.5700 
  2 C       -0.7850    -1.8190    -0.5780 C.2   1 <1>   0.5690 
  3 N       -1.0090    -2.9410    -1.3090 N.am  1 <1>  -0.5470 
  4 C       -1.7330    -1.4200     0.5390 C.3   1 <1>  -0.0990 
  5 C       -2.0190    -3.8970    -1.1610 C.ar  1 <1>   0.1170 
  6 C       -2.8220    -0.4570     0.0320 C.3   1 <1>  -0.1600 
  7 C       -1.8600    -4.9970    -0.3190 C.ar  1 <1>  -0.1430 
  8 C       -3.2050    -3.7490    -1.8670 C.ar  1 <1>  -0.1500 
  9 C       -3.9020    -0.1650     1.0860 C.3   1 <1>   0.0200 
 10 C       -2.8830    -5.9240    -0.2050 C.ar  1 <1>  -0.1500 
 11 C       -0.5780    -5.1960     0.4790 C.3   1 <1>  -0.0970 
 12 C       -4.2200    -4.6800    -1.7480 C.ar  1 <1>  -0.1500 
 13 C       -4.6660    -1.4220     1.4560 C.2   1 <1>   0.2980 
 14 C       -4.0620    -5.7760    -0.9170 C.ar  1 <1>  -0.1430 
 15 O       -4.3960    -2.0210     2.5860 O.3   1 <1>  -0.0190 
 16 N       -5.5530    -1.9780     0.7420 N.2   1 <1>  -0.5650 
 17 C       -5.1620    -6.8130    -0.7820 C.3   1 <1>  -0.0970 
 18 N       -5.1710    -3.0590     2.5850 N.2   1 <1>  -0.4100 
 19 C       -5.8490    -3.0430     1.4910 C.2   1 <1>   0.4620 
 20 C       -6.8180    -4.0430     1.0790 C.ar  1 <1>   0.0540 
 21 C       -7.3440    -4.0620    -0.2120 C.ar  1 <1>  -0.1500 
 22 C       -7.2560    -5.0360     1.9540 C.ar  1 <1>  -0.1500 
 23 C       -8.2500    -5.0200    -0.6270 C.ar  1 <1>   0.0830 
 24 C       -8.1600    -6.0060     1.5600 C.ar  1 <1>  -0.1500 
 25 O       -8.6610    -4.9100    -1.9210 O.3   1 <1>  -0.3630 
 26 C       -8.6640    -6.0230     0.2620 C.ar  1 <1>   0.0830 
 27 C      -10.0160    -5.1220    -2.2490 C.3   1 <1>   0.0400 
 28 O       -9.5210    -6.9940    -0.1620 O.3   1 <1>  -0.3630 
 29 C       -9.8890    -8.0820     0.6580 C.3   1 <1>   0.0400 
 30 H       -0.3140    -3.1100    -2.0340 H     1 <1>   0.3700 
 31 H       -1.1630    -0.9440     1.3160 H     1 <1>   0.0800 
 32 H       -2.1720    -2.3070     0.9560 H     1 <1>   0.0800 
 33 H       -3.2970    -0.8850    -0.8350 H     1 <1>   0.0800 
 34 H       -2.3600     0.4660    -0.2730 H     1 <1>   0.0800 
 35 H       -3.3350    -2.9010    -2.5140 H     1 <1>   0.1500 
 36 H       -4.6000     0.5480     0.6860 H     1 <1>   0.0800 
 37 H       -3.4580     0.2620     1.9670 H     1 <1>   0.0800 
 38 H       -2.7680    -6.7740     0.4440 H     1 <1>   0.1500 
 39 H        0.2690    -5.2220    -0.1830 H     1 <1>   0.0800 
 40 H       -0.6050    -6.1190     1.0310 H     1 <1>   0.0800 
 41 H       -0.4490    -4.3880     1.1760 H     1 <1>   0.0800 
 42 H       -5.1330    -4.5500    -2.3020 H     1 <1>   0.1500 
 43 H       -4.7740    -7.7910    -0.9990 H     1 <1>   0.0800 
 44 H       -5.9690    -6.6090    -1.4620 H     1 <1>   0.0800 
 45 H       -5.5490    -6.8060     0.2210 H     1 <1>   0.0800 
 46 H       -7.0360    -3.3130    -0.9180 H     1 <1>   0.1500 
 47 H       -6.8780    -5.0490     2.9620 H     1 <1>   0.1500 
 48 H       -8.4530    -6.7420     2.2830 H     1 <1>   0.1500 
 49 H      -10.2240    -4.6000    -3.1660 H     1 <1>   0.0800 
 50 H      -10.6370    -4.7410    -1.4570 H     1 <1>   0.0800 
 51 H      -10.1800    -6.1760    -2.3870 H     1 <1>   0.0800 
 52 H      -10.5350    -8.7250     0.0880 H     1 <1>   0.0800 
 53 H      -10.4140    -7.7090     1.5190 H     1 <1>   0.0800 
 54 H       -9.0030    -8.6190     0.9460 H     1 <1>   0.0800 
@<TRIPOS>BOND
  1   1   2  2   
  2   2   3  am  
  3   2   4  1   
  4   3   5  1   
  5   3  30  1   
  6   4   6  1   
  7   4  31  1   
  8   4  32  1   
  9   5   7  ar  
 10   5   8  ar  
 11   6   9  1   
 12   6  33  1   
 13   6  34  1   
 14   7  10  ar  
 15   7  11  1   
 16   8  12  ar  
 17   8  35  1   
 18   9  13  1   
 19   9  36  1   
 20   9  37  1   
 21  10  14  ar  
 22  10  38  1   
 23  11  39  1   
 24  11  40  1   
 25  11  41  1   
 26  12  14  ar  
 27  12  42  1   
 28  13  15  1   
 29  13  16  2   
 30  14  17  1   
 31  15  18  1   
 32  16  19  1   
 33  17  43  1   
 34  17  44  1   
 35  17  45  1   
 36  18  19  2   
 37  19  20  1   
 38  20  21  ar  
 39  20  22  ar  
 40  21  23  ar  
 41  21  46  1   
 42  22  24  ar  
 43  22  47  1   
 44  23  25  1   
 45  23  26  ar  
 46  24  26  ar  
 47  24  48  1   
 48  25  27  1   
 49  26  28  1   
 50  27  49  1   
 51  27  50  1   
 52  27  51  1   
 53  28  29  1   
 54  29  52  1   
 55  29  53  1   
 56  29  54  1   
@<TRIPOS>SUBSTRUCTURE
  1 ****  19 GROUP 4 **** **** 0

# MOE 2024.06 (io_trps.svl 2023.06)
