@<TRIPOS>MOLECULE
N-[2-Methoxy-5-(morpholine-4-sulfonyl)-phenyl]-4-methyl-benzamide
49 51 1 0 0 
SMALL
USER_CHARGES


@<TRIPOS>ATOM
  1 S        0.2040    -0.5240    -0.8440 S.o2  1 <1>   1.4470 
  2 O        0.5640     0.0000    -2.1430 O.2   1 <1>  -0.6500 
  3 O        1.1550    -1.3550    -0.1380 O.2   1 <1>  -0.6500 
  4 N       -0.1180     0.8060     0.1550 N.am  1 <1>  -0.8490 
  5 C       -1.3850    -1.3950    -0.9740 C.ar  1 <1>  -0.0090 
  6 C       -0.3790     0.4350     1.5580 C.3   1 <1>   0.1960 
  7 C        0.9580     1.8040     0.1100 C.3   1 <1>   0.1960 
  8 C       -2.5850    -0.7670    -0.6700 C.ar  1 <1>  -0.1500 
  9 C       -1.4400    -2.7210    -1.3850 C.ar  1 <1>  -0.1500 
 10 C       -0.7000     1.6820     2.3990 C.3   1 <1>   0.1200 
 11 C        0.6210     3.0170     0.9990 C.3   1 <1>   0.1200 
 12 C       -3.8000    -1.4330    -0.7040 C.ar  1 <1>   0.1170 
 13 C       -2.6440    -3.3990    -1.4750 C.ar  1 <1>  -0.1500 
 14 O        0.3460     2.6110     2.3110 O.3   1 <1>  -0.5600 
 15 N       -4.9940    -0.8060    -0.3120 N.am  1 <1>  -0.5470 
 16 C       -3.8320    -2.7610    -1.1370 C.ar  1 <1>   0.0820 
 17 C       -5.2250     0.1670     0.6320 C.2   1 <1>   0.5440 
 18 O       -5.0520    -3.3690    -1.2020 O.3   1 <1>  -0.3630 
 19 O       -4.3040     0.5790     1.3140 O.2   1 <1>  -0.5700 
 20 C       -6.5740     0.6650     0.8320 C.ar  1 <1>   0.0860 
 21 C       -5.1750    -4.7280    -1.5640 C.3   1 <1>   0.0400 
 22 C       -7.5140     0.6920    -0.2010 C.ar  1 <1>  -0.1500 
 23 C       -6.9870     1.1360     2.0790 C.ar  1 <1>  -0.1500 
 24 C       -8.8010     1.1530     0.0060 C.ar  1 <1>  -0.1500 
 25 C       -8.2730     1.5980     2.2900 C.ar  1 <1>  -0.1500 
 26 C       -9.1900     1.6090     1.2530 C.ar  1 <1>  -0.1430 
 27 C      -10.6030     2.1130     1.4840 C.3   1 <1>  -0.0970 
 28 H        0.4800    -0.0610     1.9800 H     1 <1>   0.0800 
 29 H       -1.2150    -0.2410     1.6130 H     1 <1>   0.0800 
 30 H        1.0930     2.1450    -0.9030 H     1 <1>   0.0800 
 31 H        1.8850     1.3650     0.4410 H     1 <1>   0.0800 
 32 H       -2.5760     0.2710    -0.3900 H     1 <1>   0.1500 
 33 H       -0.5230    -3.2300    -1.6380 H     1 <1>   0.1500 
 34 H       -0.8180     1.4150     3.4340 H     1 <1>   0.0800 
 35 H       -1.6090     2.1440     2.0540 H     1 <1>   0.0800 
 36 H       -0.2390     3.5360     0.6120 H     1 <1>   0.0800 
 37 H        1.4530     3.6970     1.0320 H     1 <1>   0.0800 
 38 H       -2.6310    -4.4200    -1.8080 H     1 <1>   0.1500 
 39 H       -5.8220    -1.3230    -0.6140 H     1 <1>   0.3700 
 40 H       -6.2170    -4.9920    -1.5230 H     1 <1>   0.0800 
 41 H       -4.6190    -5.3280    -0.8660 H     1 <1>   0.0800 
 42 H       -4.8060    -4.8580    -2.5660 H     1 <1>   0.0800 
 43 H       -7.2360     0.3580    -1.1850 H     1 <1>   0.1500 
 44 H       -6.2830     1.1370     2.8930 H     1 <1>   0.1500 
 45 H       -9.5020     1.1580    -0.8110 H     1 <1>   0.1500 
 46 H       -8.5570     1.9510     3.2660 H     1 <1>   0.1500 
 47 H      -10.6090     2.8860     2.2310 H     1 <1>   0.0800 
 48 H      -11.2290     1.3040     1.8160 H     1 <1>   0.0800 
 49 H      -11.0120     2.5180     0.5760 H     1 <1>   0.0800 
@<TRIPOS>BOND
  1   1   2  2   
  2   1   3  2   
  3   1   4  am  
  4   1   5  1   
  5   4   6  1   
  6   4   7  1   
  7   5   8  ar  
  8   5   9  ar  
  9   6  10  1   
 10   6  28  1   
 11   6  29  1   
 12   7  11  1   
 13   7  30  1   
 14   7  31  1   
 15   8  12  ar  
 16   8  32  1   
 17   9  13  ar  
 18   9  33  1   
 19  10  14  1   
 20  10  34  1   
 21  10  35  1   
 22  11  14  1   
 23  11  36  1   
 24  11  37  1   
 25  12  15  1   
 26  12  16  ar  
 27  13  16  ar  
 28  13  38  1   
 29  15  17  am  
 30  15  39  1   
 31  16  18  1   
 32  17  19  2   
 33  17  20  1   
 34  18  21  1   
 35  20  22  ar  
 36  20  23  ar  
 37  21  40  1   
 38  21  41  1   
 39  21  42  1   
 40  22  24  ar  
 41  22  43  1   
 42  23  25  ar  
 43  23  44  1   
 44  24  26  ar  
 45  24  45  1   
 46  25  26  ar  
 47  25  46  1   
 48  26  27  1   
 49  27  47  1   
 50  27  48  1   
 51  27  49  1   
@<TRIPOS>SUBSTRUCTURE
  1 ****   8 GROUP 4 **** **** 0

# MOE 2024.06 (io_trps.svl 2023.06)
