@<TRIPOS>MOLECULE
1-(4-Ethoxy-3-methyl-benzenesulfonyl)-piperidine-4-carboxylic acid ethylamide
50 51 1 0 0 
SMALL
USER_CHARGES


@<TRIPOS>ATOM
  1 S       -0.3830     0.0530     1.9860 S.o2  1 <1>   1.4470 
  2 O       -0.0720    -0.9890     2.9400 O.2   1 <1>  -0.6500 
  3 O       -0.7590     1.3650     2.4720 O.2   1 <1>  -0.6500 
  4 N        0.9940     0.2780     1.0210 N.am  1 <1>  -0.8490 
  5 C       -1.6150    -0.5630     0.8060 C.ar  1 <1>  -0.0090 
  6 C        2.2020     0.4140     1.8390 C.3   1 <1>   0.1960 
  7 C        0.8370     1.4050     0.0960 C.3   1 <1>   0.1960 
  8 C       -2.8720     0.0190     0.7020 C.ar  1 <1>  -0.1500 
  9 C       -1.3270    -1.6370    -0.0270 C.ar  1 <1>  -0.1500 
 10 C        3.4450     0.4650     0.9470 C.3   1 <1>  -0.1600 
 11 C        2.0300     1.4760    -0.8590 C.3   1 <1>  -0.1600 
 12 C       -3.8150    -0.4410    -0.2030 C.ar  1 <1>  -0.1430 
 13 C       -2.2550    -2.1110    -0.9360 C.ar  1 <1>  -0.1500 
 14 C        3.3530     1.6000    -0.0850 C.3   1 <1>  -0.0190 
 15 C       -3.5090    -1.5160    -1.0320 C.ar  1 <1>   0.0830 
 16 C       -5.1790     0.2310    -0.2790 C.3   1 <1>  -0.0970 
 17 C        4.5610     1.6040    -1.0210 C.2   1 <1>   0.5690 
 18 O       -4.4660    -1.9290    -1.9050 O.3   1 <1>  -0.3630 
 19 O        4.7110     0.6970    -1.8030 O.2   1 <1>  -0.5700 
 20 N        5.4400     2.6380    -0.9420 N.am  1 <1>  -0.7300 
 21 C       -4.3400    -3.0730    -2.7220 C.3   1 <1>   0.1200 
 22 C        6.6600     2.7750    -1.7600 C.3   1 <1>   0.1400 
 23 C       -4.6120    -4.3260    -1.8890 C.3   1 <1>  -0.2400 
 24 C        7.8260     3.1140    -0.8390 C.3   1 <1>  -0.2400 
 25 H        2.2910    -0.4320     2.5010 H     1 <1>   0.0800 
 26 H        2.1360     1.3060     2.4420 H     1 <1>   0.0800 
 27 H        0.7540     2.3280     0.6490 H     1 <1>   0.0800 
 28 H       -0.0630     1.2790    -0.4820 H     1 <1>   0.0800 
 29 H       -3.1110     0.8500     1.3450 H     1 <1>   0.1500 
 30 H       -0.3580    -2.1050     0.0400 H     1 <1>   0.1500 
 31 H        3.5450    -0.4790     0.4390 H     1 <1>   0.0800 
 32 H        4.3190     0.6000     1.5590 H     1 <1>   0.0800 
 33 H        1.9130     2.3180    -1.5170 H     1 <1>   0.0800 
 34 H        2.0410     0.5860    -1.4650 H     1 <1>   0.0800 
 35 H       -1.9810    -2.9420    -1.5560 H     1 <1>   0.1500 
 36 H        3.3380     2.5340     0.4470 H     1 <1>   0.0800 
 37 H       -5.2590     1.0380     0.4270 H     1 <1>   0.0800 
 38 H       -5.9500    -0.4880    -0.0670 H     1 <1>   0.0800 
 39 H       -5.3370     0.6220    -1.2680 H     1 <1>   0.0800 
 40 H        5.2790     3.3920    -0.2740 H     1 <1>   0.3700 
 41 H       -3.3670    -3.0820    -3.1790 H     1 <1>   0.0800 
 42 H       -5.0780    -2.9860    -3.5000 H     1 <1>   0.0800 
 43 H        6.5180     3.5560    -2.4870 H     1 <1>   0.0800 
 44 H        6.8610     1.8540    -2.2830 H     1 <1>   0.0800 
 45 H       -3.8890    -4.4280    -1.1000 H     1 <1>   0.0800 
 46 H       -4.5570    -5.1970    -2.5160 H     1 <1>   0.0800 
 47 H       -5.5970    -4.2740    -1.4610 H     1 <1>   0.0800 
 48 H        7.6500     4.0460    -0.3330 H     1 <1>   0.0800 
 49 H        8.7260     3.2070    -1.4200 H     1 <1>   0.0800 
 50 H        7.9680     2.3300    -0.1170 H     1 <1>   0.0800 
@<TRIPOS>BOND
  1   1   2  2   
  2   1   3  2   
  3   1   4  am  
  4   1   5  1   
  5   4   6  1   
  6   4   7  1   
  7   5   8  ar  
  8   5   9  ar  
  9   6  10  1   
 10   6  25  1   
 11   6  26  1   
 12   7  11  1   
 13   7  27  1   
 14   7  28  1   
 15   8  12  ar  
 16   8  29  1   
 17   9  13  ar  
 18   9  30  1   
 19  10  14  1   
 20  10  31  1   
 21  10  32  1   
 22  11  14  1   
 23  11  33  1   
 24  11  34  1   
 25  12  15  ar  
 26  12  16  1   
 27  13  15  ar  
 28  13  35  1   
 29  14  17  1   
 30  14  36  1   
 31  15  18  1   
 32  16  37  1   
 33  16  38  1   
 34  16  39  1   
 35  17  19  2   
 36  17  20  am  
 37  18  21  1   
 38  20  22  1   
 39  20  40  1   
 40  21  23  1   
 41  21  41  1   
 42  21  42  1   
 43  22  24  1   
 44  22  43  1   
 45  22  44  1   
 46  23  45  1   
 47  23  46  1   
 48  23  47  1   
 49  24  48  1   
 50  24  49  1   
 51  24  50  1   
@<TRIPOS>SUBSTRUCTURE
  1 ****   4 GROUP 4 **** **** 0

# MOE 2024.06 (io_trps.svl 2023.06)
