@<TRIPOS>MOLECULE
2-(1-Propyl-1H-indol-3-yl)-succinic acid
35 36 1 0 0 
SMALL
USER_CHARGES


@<TRIPOS>ATOM
  1 O        0.5550     0.0040     0.9770 O.co2 1 <1>  -0.9000 
  2 C        0.5390    -0.3470    -0.2150 C.2   1 <1>   0.9060 
  3 O        0.0850     0.4210    -1.0820 O.co2 1 <1>  -0.9000 
  4 C        1.1250    -1.7060    -0.6490 C.3   1 <1>  -0.0050 
  5 C        0.1750    -2.8860    -0.3720 C.2   1 <1>  -0.1810 
  6 C        2.5470    -1.9280    -0.0650 C.3   1 <1>  -0.2660 
  7 C       -1.1480    -2.9960    -0.8630 C.ar  1 <1>   0.0000 
  8 C        0.4260    -4.0140     0.3350 C.2   1 <1>  -0.3020 
  9 C        3.3370    -3.0540    -0.6910 C.2   1 <1>   0.9060 
 10 C       -1.6410    -4.2230    -0.4230 C.ar  1 <1>  -0.1520 
 11 C       -1.9650    -2.1710    -1.6430 C.ar  1 <1>  -0.1500 
 12 N       -0.6600    -4.8360     0.3190 N.pl3 1 <1>   0.0480 
 13 O        3.7120    -3.9970     0.0210 O.co2 1 <1>  -0.9000 
 14 O        3.6740    -2.9700    -1.8790 O.co2 1 <1>  -0.9000 
 15 C       -2.9340    -4.6390    -0.7590 C.ar  1 <1>  -0.1500 
 16 C       -3.2370    -2.5790    -1.9700 C.ar  1 <1>  -0.1500 
 17 C       -0.7070    -6.1730     0.9340 C.3   1 <1>   0.0960 
 18 C       -3.7230    -3.8160    -1.5300 C.ar  1 <1>  -0.1500 
 19 C       -0.3020    -7.2430    -0.0870 C.3   1 <1>  -0.1600 
 20 C       -0.3560    -8.6500     0.5210 C.3   1 <1>  -0.2400 
 21 H        1.2360    -1.6440    -1.7160 H     1 <1>   0.0800 
 22 H        2.4730    -2.0980     0.9920 H     1 <1>   0.0800 
 23 H        3.1180    -1.0320    -0.2090 H     1 <1>   0.0800 
 24 H        1.3370    -4.2840     0.8410 H     1 <1>   0.1500 
 25 H       -1.5750    -1.2220    -1.9680 H     1 <1>   0.1500 
 26 H       -3.2950    -5.5890    -0.4160 H     1 <1>   0.1500 
 27 H       -3.8640    -1.9420    -2.5670 H     1 <1>   0.1500 
 28 H       -1.7030    -6.3500     1.2960 H     1 <1>   0.0800 
 29 H       -0.0290    -6.1840     1.7680 H     1 <1>   0.0800 
 30 H       -4.7200    -4.1120    -1.8000 H     1 <1>   0.1500 
 31 H        0.7000    -7.0380    -0.4260 H     1 <1>   0.0800 
 32 H       -0.9620    -7.1940    -0.9360 H     1 <1>   0.0800 
 33 H        0.3180    -8.7210     1.3570 H     1 <1>   0.0800 
 34 H       -0.0620    -9.3770    -0.2160 H     1 <1>   0.0800 
 35 H       -1.3520    -8.8810     0.8530 H     1 <1>   0.0800 
@<TRIPOS>BOND
  1   1   2  ar  
  2   2   3  ar  
  3   2   4  1   
  4   4   5  1   
  5   4   6  1   
  6   4  21  1   
  7   5   7  1   
  8   5   8  2   
  9   6   9  1   
 10   6  22  1   
 11   6  23  1   
 12   7  10  ar  
 13   7  11  ar  
 14   8  12  1   
 15   8  24  1   
 16   9  13  ar  
 17   9  14  ar  
 18  10  12  1   
 19  10  15  ar  
 20  11  16  ar  
 21  11  25  1   
 22  12  17  1   
 23  15  18  ar  
 24  15  26  1   
 25  16  18  ar  
 26  16  27  1   
 27  17  19  1   
 28  17  28  1   
 29  17  29  1   
 30  18  30  1   
 31  19  20  1   
 32  19  31  1   
 33  19  32  1   
 34  20  33  1   
 35  20  34  1   
 36  20  35  1   
@<TRIPOS>SUBSTRUCTURE
  1 ****   5 GROUP 4 **** **** 0

# MOE 2024.06 (io_trps.svl 2023.06)
