@<TRIPOS>MOLECULE
2-[4-Ethyl-5-(2-methyl-1H-indol-3-ylmethyl)-4H-[1,2,4]triazol-3-ylsulfanyl]-acet
42 44 1 0 0 
SMALL
USER_CHARGES


@<TRIPOS>ATOM
  1 S       -0.7530     0.0220    -0.2600 S.3   1 <1>  -0.2860 
  2 C       -1.9410    -0.8170     0.7940 C.2   1 <1>   0.2420 
  3 C        0.8610    -0.7470     0.2560 C.3   1 <1>   0.1310 
  4 N       -1.6020    -1.6820     1.6820 N.2   1 <1>  -0.3380 
  5 N       -3.2550    -0.5960     0.7310 N.pl3 1 <1>   0.0480 
  6 C        2.0360    -0.1380    -0.4940 C.2   1 <1>   0.5690 
  7 N       -2.7400    -2.0720     2.2590 N.2   1 <1>  -0.3380 
  8 C       -3.7070    -1.4270     1.6890 C.2   1 <1>   0.0060 
  9 C       -3.9760     0.3330    -0.1740 C.3   1 <1>   0.0960 
 10 O        3.0590    -0.7630    -0.5950 O.2   1 <1>  -0.5700 
 11 N        1.9500     1.0940    -1.0350 N.am  1 <1>  -0.8000 
 12 C       -5.1660    -1.6070     2.0840 C.3   1 <1>   0.2010 
 13 C       -4.3320     1.6340     0.5510 C.3   1 <1>  -0.2400 
 14 C       -6.0660    -1.8680     0.8850 C.2   1 <1>  -0.1810 
 15 C       -7.1790    -1.0660     0.5370 C.ar  1 <1>   0.0000 
 16 C       -5.9650    -2.8570    -0.0390 C.2   1 <1>  -0.3320 
 17 C       -7.7080    -1.6160    -0.6260 C.ar  1 <1>  -0.1520 
 18 C       -7.7820     0.0720     1.0890 C.ar  1 <1>  -0.1500 
 19 N       -6.9610    -2.7140    -0.9630 N.pl3 1 <1>   0.0330 
 20 C       -4.9550    -3.9890    -0.1370 C.3   1 <1>  -0.0600 
 21 C       -8.8210    -1.0500    -1.2530 C.ar  1 <1>  -0.1500 
 22 C       -8.8770     0.6300     0.4720 C.ar  1 <1>  -0.1500 
 23 C       -9.3980     0.0690    -0.7000 C.ar  1 <1>  -0.1500 
 24 H        0.7900    -1.7990     0.0510 H     1 <1>   0.0800 
 25 H        0.9680    -0.5890     1.3120 H     1 <1>   0.0800 
 26 H       -4.8640    -0.1440    -0.5430 H     1 <1>   0.0800 
 27 H       -3.3540     0.5500    -1.0220 H     1 <1>   0.0800 
 28 H        2.7450     1.4820    -1.5430 H     1 <1>   0.3700 
 29 H        1.0880     1.6420    -1.0240 H     1 <1>   0.3700 
 30 H       -5.4910    -0.7310     2.6120 H     1 <1>   0.0800 
 31 H       -5.2480    -2.4390     2.7600 H     1 <1>   0.0800 
 32 H       -4.9770     1.4370     1.3880 H     1 <1>   0.0800 
 33 H       -4.8490     2.2920    -0.1250 H     1 <1>   0.0800 
 34 H       -3.4400     2.1280     0.8940 H     1 <1>   0.0800 
 35 H       -7.3860     0.4990     1.9910 H     1 <1>   0.1500 
 36 H       -7.1360    -3.3220    -1.7680 H     1 <1>   0.2700 
 37 H       -5.4620    -4.9370    -0.1580 H     1 <1>   0.0800 
 38 H       -4.3680    -3.8850    -1.0320 H     1 <1>   0.0800 
 39 H       -4.2890    -3.9830     0.7070 H     1 <1>   0.0800 
 40 H       -9.2140    -1.4910    -2.1510 H     1 <1>   0.1500 
 41 H       -9.3490     1.5040     0.8860 H     1 <1>   0.1500 
 42 H      -10.2560     0.5240    -1.1630 H     1 <1>   0.1500 
@<TRIPOS>BOND
  1   1   2  1   
  2   1   3  1   
  3   2   4  2   
  4   2   5  1   
  5   3   6  1   
  6   3  24  1   
  7   3  25  1   
  8   4   7  1   
  9   5   8  1   
 10   5   9  1   
 11   6  10  2   
 12   6  11  am  
 13   7   8  2   
 14   8  12  1   
 15   9  13  1   
 16   9  26  1   
 17   9  27  1   
 18  11  28  1   
 19  11  29  1   
 20  12  14  1   
 21  12  30  1   
 22  12  31  1   
 23  13  32  1   
 24  13  33  1   
 25  13  34  1   
 26  14  15  1   
 27  14  16  2   
 28  15  17  ar  
 29  15  18  ar  
 30  16  19  1   
 31  16  20  1   
 32  17  19  1   
 33  17  21  ar  
 34  18  22  ar  
 35  18  35  1   
 36  19  36  1   
 37  20  37  1   
 38  20  38  1   
 39  20  39  1   
 40  21  23  ar  
 41  21  40  1   
 42  22  23  ar  
 43  22  41  1   
 44  23  42  1   
@<TRIPOS>SUBSTRUCTURE
  1 ****   5 GROUP 4 **** **** 0

# MOE 2024.06 (io_trps.svl 2023.06)
