@<TRIPOS>MOLECULE
6-Methyl-10-oxo-2-[(tetrahydro-furan-2-ylmethyl)-amino]-10H-1,9,10a-triaza-anthr
52 55 1 0 0 
SMALL
USER_CHARGES


@<TRIPOS>ATOM
  1 O       -0.3800    -0.9680     1.6520 O.2   1 <1>  -0.5700 
  2 C        0.0070    -1.8320     0.9000 C.2   1 <1>   0.8650 
  3 N       -0.9470    -2.6630     0.2840 N.pl3 1 <1>  -0.5760 
  4 C        1.4010    -2.0000     0.6360 C.ar  1 <1>   0.0860 
  5 C       -0.5460    -3.6260    -0.5810 C.cat 1 <1>   0.7390 
  6 C       -2.2920    -2.5140     0.5440 C.2   1 <1>   0.1910 
  7 C        1.7400    -3.0040    -0.2620 C.ar  1 <1>   0.6590 
  8 C        2.4370    -1.2560     1.1840 C.ar  1 <1>  -0.1500 
  9 N        0.7640    -3.7600    -0.8260 N.pl3 1 <1>  -0.6530 
 10 C       -1.4930    -4.4540    -1.1970 C.2   1 <1>  -0.1800 
 11 C       -3.2350    -3.3120    -0.0470 C.2   1 <1>  -0.1380 
 12 N        2.9560    -3.3140    -0.6390 N.ar  1 <1>  -0.6200 
 13 C        3.7370    -1.5480     0.8140 C.ar  1 <1>   0.0860 
 14 C       -2.8300    -4.3090    -0.9410 C.2   1 <1>  -0.1500 
 15 C       -4.7190    -3.1480     0.2390 C.3   1 <1>  -0.1020 
 16 C        3.9380    -2.6140    -0.0940 C.ar  1 <1>   0.4100 
 17 C        4.8170    -0.7750     1.3630 C.2   1 <1>   0.5440 
 18 N        5.1570    -3.0420    -0.5150 N.pl3 1 <1>  -0.8690 
 19 O        5.1320    -0.9150     2.5250 O.2   1 <1>  -0.5700 
 20 N        5.5040     0.1610     0.6550 N.am  1 <1>  -0.7300 
 21 C        6.3570    -3.2060     0.3510 C.3   1 <1>   0.2090 
 22 C        5.4320     0.4540    -0.7900 C.3   1 <1>   0.1400 
 23 C        7.3290    -4.2220    -0.2740 C.3   1 <1>   0.2000 
 24 C        4.7480     1.8020    -0.9780 C.3   1 <1>  -0.2400 
 25 O        6.6410    -5.3360    -0.7550 O.3   1 <1>  -0.5600 
 26 C        8.3520    -4.7960     0.6940 C.3   1 <1>  -0.1600 
 27 C        7.4960    -6.4330    -0.8450 C.3   1 <1>   0.1200 
 28 C        8.6890    -6.1360     0.0630 C.3   1 <1>  -0.1600 
 29 H       -2.6020    -1.7420     1.2360 H     1 <1>   0.1500 
 30 H        2.2400    -0.4610     1.8880 H     1 <1>   0.1500 
 31 H        1.1180    -4.4750    -1.4640 H     1 <1>   0.4500 
 32 H       -1.1570    -5.2130    -1.8800 H     1 <1>   0.1500 
 33 H       -3.5670    -4.9420    -1.4110 H     1 <1>   0.1500 
 34 H       -5.1190    -4.0580     0.6530 H     1 <1>   0.0800 
 35 H       -5.2490    -2.9240    -0.6710 H     1 <1>   0.0800 
 36 H       -4.8970    -2.3510     0.9390 H     1 <1>   0.0800 
 37 H        5.1170    -3.8530    -1.1520 H     1 <1>   0.4000 
 38 H        6.1920     0.6980     1.1900 H     1 <1>   0.3700 
 39 H        6.0510    -3.5500     1.3250 H     1 <1>   0.0800 
 40 H        6.8630    -2.2640     0.4690 H     1 <1>   0.0800 
 41 H        4.8830    -0.3150    -1.3060 H     1 <1>   0.0800 
 42 H        6.4290     0.4840    -1.1960 H     1 <1>   0.0800 
 43 H        7.8330    -3.7720    -1.1140 H     1 <1>   0.0800 
 44 H        3.7510     1.7770    -0.5770 H     1 <1>   0.0800 
 45 H        4.6890     2.0350    -2.0260 H     1 <1>   0.0800 
 46 H        5.3100     2.5780    -0.4900 H     1 <1>   0.0800 
 47 H        7.9010    -4.9490     1.6600 H     1 <1>   0.0800 
 48 H        9.2120    -4.1580     0.7990 H     1 <1>   0.0800 
 49 H        7.8010    -6.5430    -1.8720 H     1 <1>   0.0800 
 50 H        6.9570    -7.3080    -0.5260 H     1 <1>   0.0800 
 51 H        8.8220    -6.9070     0.8010 H     1 <1>   0.0800 
 52 H        9.5820    -6.0650    -0.5330 H     1 <1>   0.0800 
@<TRIPOS>BOND
  1   1   2  2   
  2   2   3  1   
  3   2   4  1   
  4   3   5  ar  
  5   3   6  1   
  6   4   7  ar  
  7   4   8  ar  
  8   5   9  ar  
  9   5  10  1   
 10   6  11  2   
 11   6  29  1   
 12   7   9  1   
 13   7  12  ar  
 14   8  13  ar  
 15   8  30  1   
 16   9  31  1   
 17  10  14  2   
 18  10  32  1   
 19  11  14  1   
 20  11  15  1   
 21  12  16  ar  
 22  13  16  ar  
 23  13  17  1   
 24  14  33  1   
 25  15  34  1   
 26  15  35  1   
 27  15  36  1   
 28  16  18  1   
 29  17  19  2   
 30  17  20  am  
 31  18  21  1   
 32  18  37  1   
 33  20  22  1   
 34  20  38  1   
 35  21  23  1   
 36  21  39  1   
 37  21  40  1   
 38  22  24  1   
 39  22  41  1   
 40  22  42  1   
 41  23  25  1   
 42  23  26  1   
 43  23  43  1   
 44  24  44  1   
 45  24  45  1   
 46  24  46  1   
 47  25  27  1   
 48  26  28  1   
 49  26  47  1   
 50  26  48  1   
 51  27  28  1   
 52  27  49  1   
 53  27  50  1   
 54  28  51  1   
 55  28  52  1   
@<TRIPOS>SUBSTRUCTURE
  1 ****  12 GROUP 4 **** **** 0

# MOE 2024.06 (io_trps.svl 2023.06)
