@<TRIPOS>MOLECULE
7-[2-(4-Methoxy-phenyl)-ethyl]-3-methyl-8-morpholin-4-yl-3,7-dihydro-purine-2,6-
52 55 1 0 0 
SMALL
USER_CHARGES


@<TRIPOS>ATOM
  1 O        2.4180     0.5400     3.6260 O.2   1 <1>  -0.5740 
  2 C        2.9200     1.1370     2.7040 C.2   1 <1>   0.6860 
  3 N        4.1460     0.7760     2.1660 N.am  1 <1>  -0.4410 
  4 N        2.2490     2.2010     2.1760 N.am  1 <1>  -0.4950 
  5 C        4.6300     1.5290     1.1070 C.2   1 <1>   0.4210 
  6 C        4.9110    -0.3860     2.7070 C.3   1 <1>   0.0520 
  7 C        2.7110     2.9470     1.1300 C.2   1 <1>   0.7000 
  8 N        5.7830     1.3410     0.4200 N.pl3 1 <1>  -0.7040 
  9 C        3.9910     2.5950     0.5800 C.2   1 <1>   0.2710 
 10 O        2.0200     3.8540     0.7100 O.2   1 <1>  -0.5740 
 11 C        5.8910     2.2780    -0.5270 C.cat 1 <1>   1.0690 
 12 N        4.8140     3.0880    -0.4550 N.pl3 1 <1>  -0.7670 
 13 N        6.9450     2.2850    -1.3810 N.pl3 1 <1>  -0.5960 
 14 C        4.3740     4.2650    -1.2680 C.3   1 <1>   0.3480 
 15 C        7.8290     1.0910    -1.6150 C.3   1 <1>   0.1610 
 16 C        7.4530     3.4690    -2.1460 C.3   1 <1>   0.1610 
 17 C        4.5280     5.5900    -0.4970 C.3   1 <1>  -0.0240 
 18 C        9.3060     1.4370    -1.3670 C.3   1 <1>   0.1130 
 19 C        8.9510     3.6970    -1.8820 C.3   1 <1>   0.1130 
 20 C        5.9750     5.9020    -0.1500 C.ar  1 <1>  -0.1510 
 21 O        9.6680     2.5290    -2.1510 O.3   1 <1>  -0.5640 
 22 C        6.5610     5.3760     0.9920 C.ar  1 <1>  -0.1570 
 23 C        6.7260     6.7150    -0.9860 C.ar  1 <1>  -0.1570 
 24 C        7.8910     5.6260     1.2800 C.ar  1 <1>  -0.1570 
 25 C        8.0560     6.9640    -0.7020 C.ar  1 <1>  -0.1570 
 26 C        8.6500     6.4170     0.4230 C.ar  1 <1>   0.0750 
 27 O        9.9630     6.6930     0.6130 O.3   1 <1>  -0.3680 
 28 C       10.6330     6.3070     1.7920 C.3   1 <1>   0.0320 
 29 H        1.3440     2.4320     2.5830 H     1 <1>   0.3640 
 30 H        4.4410    -0.7760     3.5950 H     1 <1>   0.0730 
 31 H        5.9110    -0.0820     2.9630 H     1 <1>   0.0730 
 32 H        4.9490    -1.1720     1.9720 H     1 <1>   0.0730 
 33 H        6.4810     0.6290     0.6030 H     1 <1>   0.4450 
 34 H        3.3360     4.1400    -1.5270 H     1 <1>   0.0730 
 35 H        4.9150     4.3130    -2.1950 H     1 <1>   0.0730 
 36 H        7.7240     0.7750    -2.6400 H     1 <1>   0.0730 
 37 H        7.5520     0.2570    -0.9960 H     1 <1>   0.0730 
 38 H        6.9370     4.3580    -1.8700 H     1 <1>   0.0730 
 39 H        7.3040     3.3090    -3.2000 H     1 <1>   0.0730 
 40 H        3.9380     5.5730     0.4000 H     1 <1>   0.0730 
 41 H        4.1340     6.3840    -1.1060 H     1 <1>   0.0730 
 42 H        9.9370     0.6120    -1.6490 H     1 <1>   0.0730 
 43 H        9.4880     1.6760    -0.3340 H     1 <1>   0.0730 
 44 H        9.1280     3.9860    -0.8610 H     1 <1>   0.0730 
 45 H        9.3310     4.4720    -2.5260 H     1 <1>   0.0730 
 46 H        5.9840     4.7730     1.6700 H     1 <1>   0.1430 
 47 H        6.2890     7.1590    -1.8640 H     1 <1>   0.1430 
 48 H        8.3210     5.2070     2.1700 H     1 <1>   0.1430 
 49 H        8.6450     7.5900    -1.3490 H     1 <1>   0.1430 
 50 H       11.6390     6.6840     1.7420 H     1 <1>   0.0730 
 51 H       10.6480     5.2340     1.8510 H     1 <1>   0.0730 
 52 H       10.1250     6.7350     2.6390 H     1 <1>   0.0730 
@<TRIPOS>BOND
  1   1   2  2   
  2   2   3  am  
  3   2   4  am  
  4   3   5  1   
  5   3   6  1   
  6   4   7  am  
  7   4  29  1   
  8   5   8  1   
  9   5   9  2   
 10   6  30  1   
 11   6  31  1   
 12   6  32  1   
 13   7   9  1   
 14   7  10  2   
 15   8  11  ar  
 16   8  33  1   
 17   9  12  1   
 18  11  12  ar  
 19  11  13  ar  
 20  12  14  1   
 21  13  15  1   
 22  13  16  1   
 23  14  17  1   
 24  14  34  1   
 25  14  35  1   
 26  15  18  1   
 27  15  36  1   
 28  15  37  1   
 29  16  19  1   
 30  16  38  1   
 31  16  39  1   
 32  17  20  1   
 33  17  40  1   
 34  17  41  1   
 35  18  21  1   
 36  18  42  1   
 37  18  43  1   
 38  19  21  1   
 39  19  44  1   
 40  19  45  1   
 41  20  22  ar  
 42  20  23  ar  
 43  22  24  ar  
 44  22  46  1   
 45  23  25  ar  
 46  23  47  1   
 47  24  26  ar  
 48  24  48  1   
 49  25  26  ar  
 50  25  49  1   
 51  26  27  1   
 52  27  28  1   
 53  28  50  1   
 54  28  51  1   
 55  28  52  1   
@<TRIPOS>SUBSTRUCTURE
  1 ****  11 GROUP 4 **** **** 0

# MOE 2024.06 (io_trps.svl 2023.06)
