@<TRIPOS>MOLECULE
1-(4-Methoxy-3-methyl-benzenesulfonyl)-piperidine-4-carboxylic acid 2-chloro-ben
54 56 1 0 0 
SMALL
USER_CHARGES


@<TRIPOS>ATOM
  1 CL      -2.2820     0.3360    -0.4640 Cl    1 <1>  -0.1770 
  2 C       -1.5130    -1.2340    -0.4260 C.ar  1 <1>   0.1770 
  3 C       -2.0360    -2.2890    -1.1600 C.ar  1 <1>  -0.1440 
  4 C       -0.3850    -1.3900     0.3590 C.ar  1 <1>  -0.1500 
  5 C       -1.4070    -3.5230    -1.0860 C.ar  1 <1>  -0.1500 
  6 C       -3.2710    -2.1170    -2.0260 C.3   1 <1>   0.2840 
  7 C        0.2370    -2.6250     0.4190 C.ar  1 <1>  -0.1500 
  8 C       -0.2770    -3.6890    -0.3030 C.ar  1 <1>  -0.1500 
  9 N       -4.4640    -2.2280    -1.1660 N.am  1 <1>  -0.7300 
 10 C       -5.4560    -3.1370    -1.3330 C.2   1 <1>   0.5690 
 11 O       -5.4570    -3.9110    -2.2600 O.2   1 <1>  -0.5700 
 12 C       -6.5900    -3.1760    -0.3110 C.3   1 <1>  -0.0190 
 13 C       -6.5100    -4.4360     0.5650 C.3   1 <1>  -0.1600 
 14 C       -7.9740    -3.1110    -0.9800 C.3   1 <1>  -0.1600 
 15 C       -7.6840    -4.5140     1.5460 C.3   1 <1>   0.1960 
 16 C       -9.0930    -3.2190     0.0580 C.3   1 <1>   0.1960 
 17 N       -8.9570    -4.4620     0.8230 N.am  1 <1>  -0.8490 
 18 S      -10.2700    -4.7090     1.8700 S.o2  1 <1>   1.4470 
 19 O       -9.9730    -5.8860     2.6570 O.2   1 <1>  -0.6500 
 20 O      -10.4940    -3.4460     2.5440 O.2   1 <1>  -0.6500 
 21 C      -11.6370    -5.0750     0.7360 C.ar  1 <1>  -0.0090 
 22 C      -12.8290    -4.3610     0.7860 C.ar  1 <1>  -0.1500 
 23 C      -11.5220    -6.0790    -0.2170 C.ar  1 <1>  -0.1500 
 24 C      -13.8740    -4.6280    -0.0840 C.ar  1 <1>  -0.1430 
 25 C      -12.5540    -6.3610    -1.0930 C.ar  1 <1>  -0.1500 
 26 C      -13.7390    -5.6350    -1.0340 C.ar  1 <1>   0.0830 
 27 C      -15.1600    -3.8190     0.0080 C.3   1 <1>  -0.0970 
 28 O      -14.7860    -5.8630    -1.8690 O.3   1 <1>  -0.3620 
 29 C      -14.7500    -6.8760    -2.8490 C.3   1 <1>   0.0400 
 30 H        0.0000    -0.5530     0.9140 H     1 <1>   0.1500 
 31 H       -1.7990    -4.3620    -1.6380 H     1 <1>   0.1500 
 32 H       -3.2920    -2.8730    -2.7930 H     1 <1>   0.0800 
 33 H       -3.2640    -1.1560    -2.5100 H     1 <1>   0.0800 
 34 H        1.1170    -2.7580     1.0260 H     1 <1>   0.1500 
 35 H        0.2040    -4.6520    -0.2540 H     1 <1>   0.1500 
 36 H       -4.4570    -1.6070    -0.3570 H     1 <1>   0.3700 
 37 H       -6.4930    -2.3180     0.3300 H     1 <1>   0.0800 
 38 H       -5.5860    -4.4400     1.1140 H     1 <1>   0.0800 
 39 H       -6.5230    -5.3140    -0.0590 H     1 <1>   0.0800 
 40 H       -8.0780    -3.9160    -1.6870 H     1 <1>   0.0800 
 41 H       -8.0730    -2.1870    -1.5190 H     1 <1>   0.0800 
 42 H       -7.6340    -3.7030     2.2550 H     1 <1>   0.0800 
 43 H       -7.6120    -5.4410     2.0920 H     1 <1>   0.0800 
 44 H      -10.0420    -3.2080    -0.4540 H     1 <1>   0.0800 
 45 H       -9.0600    -2.3700     0.7220 H     1 <1>   0.0800 
 46 H      -12.9350    -3.5830     1.5220 H     1 <1>   0.1500 
 47 H      -10.6070    -6.6450    -0.2700 H     1 <1>   0.1500 
 48 H      -12.4140    -7.1460    -1.8110 H     1 <1>   0.1500 
 49 H      -15.3410    -3.3160    -0.9250 H     1 <1>   0.0800 
 50 H      -15.1050    -3.0830     0.7900 H     1 <1>   0.0800 
 51 H      -15.9880    -4.4740     0.2120 H     1 <1>   0.0800 
 52 H      -15.6880    -6.8650    -3.3740 H     1 <1>   0.0800 
 53 H      -14.6140    -7.8260    -2.3630 H     1 <1>   0.0800 
 54 H      -13.9460    -6.6720    -3.5330 H     1 <1>   0.0800 
@<TRIPOS>BOND
  1   1   2  1   
  2   2   3  ar  
  3   2   4  ar  
  4   3   5  ar  
  5   3   6  1   
  6   4   7  ar  
  7   4  30  1   
  8   5   8  ar  
  9   5  31  1   
 10   6   9  1   
 11   6  32  1   
 12   6  33  1   
 13   7   8  ar  
 14   7  34  1   
 15   8  35  1   
 16   9  10  am  
 17   9  36  1   
 18  10  11  2   
 19  10  12  1   
 20  12  13  1   
 21  12  14  1   
 22  12  37  1   
 23  13  15  1   
 24  13  38  1   
 25  13  39  1   
 26  14  16  1   
 27  14  40  1   
 28  14  41  1   
 29  15  17  1   
 30  15  42  1   
 31  15  43  1   
 32  16  17  1   
 33  16  44  1   
 34  16  45  1   
 35  17  18  am  
 36  18  19  2   
 37  18  20  2   
 38  18  21  1   
 39  21  22  ar  
 40  21  23  ar  
 41  22  24  ar  
 42  22  46  1   
 43  23  25  ar  
 44  23  47  1   
 45  24  26  ar  
 46  24  27  1   
 47  25  26  ar  
 48  25  48  1   
 49  26  28  1   
 50  27  49  1   
 51  27  50  1   
 52  27  51  1   
 53  28  29  1   
 54  29  52  1   
 55  29  53  1   
 56  29  54  1   
@<TRIPOS>SUBSTRUCTURE
  1 ****  14 GROUP 4 **** **** 0

# MOE 2024.06 (io_trps.svl 2023.06)
