@<TRIPOS>MOLECULE
8-(4-Benzyl-piperidin-1-yl)-3-methyl-7-(2-oxo-propyl)-3,7-dihydro-purine-2,6-dio
55 58 1 0 0 
SMALL
USER_CHARGES


@<TRIPOS>ATOM
  1 O        1.7580     0.0450     1.7340 O.2   1 <1>  -0.5740 
  2 C        2.6410     0.6860     1.2150 C.2   1 <1>   0.6870 
  3 N        3.8670     0.1260     0.8830 N.am  1 <1>  -0.4410 
  4 N        2.4150     2.0070     0.9490 N.am  1 <1>  -0.4950 
  5 C        4.8200     0.9550     0.3090 C.2   1 <1>   0.4210 
  6 C        4.1560    -1.3110     1.1630 C.3   1 <1>   0.0530 
  7 C        3.3380     2.8310     0.3720 C.2   1 <1>   0.7000 
  8 N        6.0890     0.6440    -0.0630 N.pl3 1 <1>  -0.7030 
  9 C        4.6110     2.2620     0.0410 C.2   1 <1>   0.2710 
 10 O        3.0510     3.9930     0.1560 O.2   1 <1>  -0.5740 
 11 C        6.6860     1.7450    -0.5270 C.cat 1 <1>   1.0690 
 12 N        5.8010     2.7550    -0.5240 N.pl3 1 <1>  -0.7670 
 13 N        7.9800     1.7490    -0.9180 N.pl3 1 <1>  -0.5960 
 14 C        5.9380     4.2020    -0.8950 C.3   1 <1>   0.4100 
 15 C        8.9300     2.8800    -0.7040 C.3   1 <1>   0.1610 
 16 C        8.6720     0.5160    -1.3940 C.3   1 <1>   0.1610 
 17 C        6.1830     5.0840     0.3340 C.2   1 <1>   0.4430 
 18 C        9.9890     2.4760     0.3270 C.3   1 <1>  -0.1670 
 19 C        9.7040     0.0670    -0.3580 C.3   1 <1>  -0.1670 
 20 O        6.7630     4.6610     1.2900 O.2   1 <1>  -0.5740 
 21 C        5.6640     6.5060     0.2950 C.3   1 <1>  -0.1850 
 22 C       10.7230     1.1840    -0.0700 C.3   1 <1>  -0.0870 
 23 C       11.7350     0.7770     1.0170 C.3   1 <1>  -0.0240 
 24 C       12.5150    -0.4720     0.6290 C.ar  1 <1>  -0.1500 
 25 C       13.4890    -0.4080    -0.3550 C.ar  1 <1>  -0.1570 
 26 C       12.2600    -1.6850     1.2520 C.ar  1 <1>  -0.1570 
 27 C       14.1940    -1.5410    -0.7190 C.ar  1 <1>  -0.1570 
 28 C       12.9640    -2.8200     0.8900 C.ar  1 <1>  -0.1570 
 29 C       13.9310    -2.7490    -0.0970 C.ar  1 <1>  -0.1570 
 30 H        1.5070     2.3870     1.2070 H     1 <1>   0.3650 
 31 H        3.2480    -1.8440     1.3930 H     1 <1>   0.0730 
 32 H        4.8210    -1.3910     2.0050 H     1 <1>   0.0730 
 33 H        4.6060    -1.7730     0.3020 H     1 <1>   0.0730 
 34 H        6.5710    -0.2370     0.0840 H     1 <1>   0.4450 
 35 H        5.0370     4.5270    -1.3870 H     1 <1>   0.0730 
 36 H        6.7450     4.3310    -1.5930 H     1 <1>   0.0730 
 37 H        8.4320     3.7540    -0.3370 H     1 <1>   0.0730 
 38 H        9.4070     3.1270    -1.6380 H     1 <1>   0.0730 
 39 H        9.1740     0.7320    -2.3230 H     1 <1>   0.0730 
 40 H        7.9710    -0.2790    -1.5850 H     1 <1>   0.0730 
 41 H        9.5150     2.3520     1.2860 H     1 <1>   0.0730 
 42 H       10.7020     3.2770     0.4240 H     1 <1>   0.0730 
 43 H       10.2190    -0.7980    -0.7420 H     1 <1>   0.0730 
 44 H        9.2100    -0.2260     0.5510 H     1 <1>   0.0730 
 45 H        6.0980     7.0410    -0.5290 H     1 <1>   0.0730 
 46 H        5.9230     7.0120     1.2080 H     1 <1>   0.0730 
 47 H        4.5930     6.5060     0.1980 H     1 <1>   0.0730 
 48 H       11.2740     1.3780    -0.9760 H     1 <1>   0.0730 
 49 H       11.2240     0.6100     1.9490 H     1 <1>   0.0730 
 50 H       12.4350     1.5790     1.1760 H     1 <1>   0.0730 
 51 H       13.7030     0.5270    -0.8430 H     1 <1>   0.1430 
 52 H       11.5130    -1.7530     2.0230 H     1 <1>   0.1430 
 53 H       14.9490    -1.4840    -1.4830 H     1 <1>   0.1430 
 54 H       12.7630    -3.7580     1.3770 H     1 <1>   0.1430 
 55 H       14.4790    -3.6300    -0.3790 H     1 <1>   0.1430 
@<TRIPOS>BOND
  1   1   2  2   
  2   2   3  am  
  3   2   4  am  
  4   3   5  1   
  5   3   6  1   
  6   4   7  am  
  7   4  30  1   
  8   5   8  1   
  9   5   9  2   
 10   6  31  1   
 11   6  32  1   
 12   6  33  1   
 13   7   9  1   
 14   7  10  2   
 15   8  11  ar  
 16   8  34  1   
 17   9  12  1   
 18  11  12  ar  
 19  11  13  ar  
 20  12  14  1   
 21  13  15  1   
 22  13  16  1   
 23  14  17  1   
 24  14  35  1   
 25  14  36  1   
 26  15  18  1   
 27  15  37  1   
 28  15  38  1   
 29  16  19  1   
 30  16  39  1   
 31  16  40  1   
 32  17  20  2   
 33  17  21  1   
 34  18  22  1   
 35  18  41  1   
 36  18  42  1   
 37  19  22  1   
 38  19  43  1   
 39  19  44  1   
 40  21  45  1   
 41  21  46  1   
 42  21  47  1   
 43  22  23  1   
 44  22  48  1   
 45  23  24  1   
 46  23  49  1   
 47  23  50  1   
 48  24  25  ar  
 49  24  26  ar  
 50  25  27  ar  
 51  25  51  1   
 52  26  28  ar  
 53  26  52  1   
 54  27  29  ar  
 55  27  53  1   
 56  28  29  ar  
 57  28  54  1   
 58  29  55  1   
@<TRIPOS>SUBSTRUCTURE
  1 ****  11 GROUP 4 **** **** 0

# MOE 2024.06 (io_trps.svl 2023.06)
