@<TRIPOS>MOLECULE
N-Methyl-2-[4-(morpholine-4-sulfonyl)-phenoxy]-acetamide
39 40 1 0 0 
SMALL
USER_CHARGES


@<TRIPOS>ATOM
  1 S       -0.0960    -0.3450    -1.4900 S.o2  1 <1>   1.4470 
  2 O        0.1400    -1.6180    -2.1330 O.2   1 <1>  -0.6500 
  3 O       -0.9590     0.6230    -2.1350 O.2   1 <1>  -0.6500 
  4 N       -0.7790    -0.6740     0.0250 N.am  1 <1>  -0.8490 
  5 C        1.4940     0.4190    -1.0770 C.ar  1 <1>  -0.0090 
  6 C       -1.1540     0.5370     0.7880 C.3   1 <1>   0.1960 
  7 C       -1.9020    -1.6120    -0.0610 C.3   1 <1>   0.1960 
  8 C        1.9260     1.5760    -1.7180 C.ar  1 <1>  -0.1500 
  9 C        2.3270    -0.1410    -0.1150 C.ar  1 <1>  -0.1500 
 10 C       -2.2770     0.3020     1.8240 C.3   1 <1>   0.1200 
 11 C       -2.4220    -2.0070     1.3420 C.3   1 <1>   0.1200 
 12 C        3.1430     2.1590    -1.4120 C.ar  1 <1>  -0.1500 
 13 C        3.5450     0.4340     0.1990 C.ar  1 <1>  -0.1500 
 14 O       -2.2500    -1.0050     2.3140 O.3   1 <1>  -0.5600 
 15 C        3.9620     1.5850    -0.4460 C.ar  1 <1>   0.0830 
 16 O        5.1680     2.0830    -0.0860 O.3   1 <1>  -0.3630 
 17 C        5.7260     3.2170    -0.7400 C.3   1 <1>   0.1810 
 18 C        7.1120     3.5410    -0.1970 C.2   1 <1>   0.5690 
 19 O        7.6930     4.5030    -0.6400 O.2   1 <1>  -0.5700 
 20 N        7.6560     2.7440     0.7620 N.am  1 <1>  -0.7300 
 21 C        8.9870     2.9210     1.3920 C.3   1 <1>   0.0600 
 22 H       -1.4840     1.3200     0.1270 H     1 <1>   0.0800 
 23 H       -0.2800     0.9000     1.3020 H     1 <1>   0.0800 
 24 H       -1.6000    -2.5080    -0.5780 H     1 <1>   0.0800 
 25 H       -2.7010    -1.1650    -0.6270 H     1 <1>   0.0800 
 26 H        1.2980     2.0250    -2.4700 H     1 <1>   0.1500 
 27 H        2.0150    -1.0400     0.3920 H     1 <1>   0.1500 
 28 H       -3.2410     0.4730     1.3780 H     1 <1>   0.0800 
 29 H       -2.1640     0.9730     2.6560 H     1 <1>   0.0800 
 30 H       -1.8900    -2.8740     1.6900 H     1 <1>   0.0800 
 31 H       -3.4680    -2.2510     1.2920 H     1 <1>   0.0800 
 32 H        3.4300     3.0530    -1.9350 H     1 <1>   0.1500 
 33 H        4.1780    -0.0110     0.9460 H     1 <1>   0.1500 
 34 H        5.0780     4.0580    -0.5780 H     1 <1>   0.0800 
 35 H        5.8010     3.0030    -1.7900 H     1 <1>   0.0800 
 36 H        7.0910     1.9500     1.0820 H     1 <1>   0.3700 
 37 H        9.4840     3.7830     0.9790 H     1 <1>   0.0800 
 38 H        9.5940     2.0500     1.2120 H     1 <1>   0.0800 
 39 H        8.8720     3.0620     2.4530 H     1 <1>   0.0800 
@<TRIPOS>BOND
  1   1   2  2   
  2   1   3  2   
  3   1   4  am  
  4   1   5  1   
  5   4   6  1   
  6   4   7  1   
  7   5   8  ar  
  8   5   9  ar  
  9   6  10  1   
 10   6  22  1   
 11   6  23  1   
 12   7  11  1   
 13   7  24  1   
 14   7  25  1   
 15   8  12  ar  
 16   8  26  1   
 17   9  13  ar  
 18   9  27  1   
 19  10  14  1   
 20  10  28  1   
 21  10  29  1   
 22  11  14  1   
 23  11  30  1   
 24  11  31  1   
 25  12  15  ar  
 26  12  32  1   
 27  13  15  ar  
 28  13  33  1   
 29  15  16  1   
 30  16  17  1   
 31  17  18  1   
 32  17  34  1   
 33  17  35  1   
 34  18  19  2   
 35  18  20  am  
 36  20  21  1   
 37  20  36  1   
 38  21  37  1   
 39  21  38  1   
 40  21  39  1   
@<TRIPOS>SUBSTRUCTURE
  1 ****   9 GROUP 4 **** **** 0

# MOE 2024.06 (io_trps.svl 2023.06)
