@<TRIPOS>MOLECULE
1-(3-Fluoro-phenyl)-cyclopropanecarboxylic acid
21 22 1 0 0 
SMALL
USER_CHARGES


@<TRIPOS>ATOM
  1 F       -0.1900     1.0430     0.5990 F     1 <1>  -0.1900 
  2 C        0.6630     1.8550     0.0330 C.ar  1 <1>   0.1900 
  3 C        1.9800     1.8370     0.4510 C.ar  1 <1>  -0.1500 
  4 C        0.2120     2.6990    -0.9650 C.ar  1 <1>  -0.1500 
  5 C        2.8850     2.6910    -0.1590 C.ar  1 <1>  -0.0320 
  6 C        1.1190     3.5600    -1.5610 C.ar  1 <1>  -0.1500 
  7 C        2.4450     3.5530    -1.1540 C.ar  1 <1>  -0.1500 
  8 C        4.3500     2.7020     0.2520 C.3   1 <1>  -0.1150 
  9 C        4.7050     3.8900     1.1580 C.2   1 <1>   0.9470 
 10 C        5.3550     2.2510    -0.7760 C.3   1 <1>  -0.2000 
 11 C        5.0780     1.3920     0.4140 C.3   1 <1>  -0.2000 
 12 O        4.7320     3.7240     2.3850 O.co2 1 <1>  -0.9000 
 13 O        4.9800     4.9790     0.6340 O.co2 1 <1>  -0.9000 
 14 H        2.2960     1.1790     1.2390 H     1 <1>   0.1500 
 15 H       -0.8200     2.6830    -1.2600 H     1 <1>   0.1500 
 16 H        0.8010     4.2370    -2.3330 H     1 <1>   0.1500 
 17 H        3.1560     4.2290    -1.6000 H     1 <1>   0.1500 
 18 H        6.2770     2.8030    -0.8310 H     1 <1>   0.1000 
 19 H        4.9920     1.9490    -1.7410 H     1 <1>   0.1000 
 20 H        4.5350     0.4750     0.2780 H     1 <1>   0.1000 
 21 H        5.8010     1.3340     1.2090 H     1 <1>   0.1000 
@<TRIPOS>BOND
  1   1   2  1   
  2   2   3  ar  
  3   2   4  ar  
  4   3   5  ar  
  5   3  14  1   
  6   4   6  ar  
  7   4  15  1   
  8   5   7  ar  
  9   5   8  1   
 10   6   7  ar  
 11   6  16  1   
 12   7  17  1   
 13   8   9  1   
 14   8  10  1   
 15   8  11  1   
 16   9  12  ar  
 17   9  13  ar  
 18  10  11  1   
 19  10  18  1   
 20  10  19  1   
 21  11  20  1   
 22  11  21  1   
@<TRIPOS>SUBSTRUCTURE
  1 ****   5 GROUP 4 **** **** 0

# MOE 2024.06 (io_trps.svl 2023.06)
