@<TRIPOS>MOLECULE
5-Oxo-1-phenyl-pyrrolidine-3-carboxylic acid 3,3-dimethyl-2-oxo-butyl ester
43 44 1 0 0 
SMALL
USER_CHARGES


@<TRIPOS>ATOM
  1 O        0.5980     0.0180     0.2150 O.2   1 <1>  -0.5700 
  2 C        1.7080     0.4850     0.2600 C.2   1 <1>   0.5690 
  3 N        2.8850    -0.1560    -0.0070 N.am  1 <1>  -0.4770 
  4 C        1.9400     1.9230     0.6300 C.3   1 <1>  -0.0990 
  5 C        3.0850    -1.4840    -0.4350 C.ar  1 <1>   0.1170 
  6 C        4.0250     0.7710     0.1470 C.3   1 <1>   0.1400 
  7 C        3.3900     2.1660     0.1790 C.3   1 <1>  -0.0190 
  8 C        4.2070    -2.2050    -0.0300 C.ar  1 <1>  -0.1500 
  9 C        2.1780    -2.1100    -1.2850 C.ar  1 <1>  -0.1500 
 10 C        4.1910     3.1320     1.0350 C.2   1 <1>   0.6590 
 11 C        4.4180    -3.5010    -0.4650 C.ar  1 <1>  -0.1500 
 12 C        2.3830    -3.4070    -1.7210 C.ar  1 <1>  -0.1500 
 13 O        3.6970     3.7950     1.9080 O.2   1 <1>  -0.5700 
 14 O        5.4830     3.2000     0.7580 O.3   1 <1>  -0.4300 
 15 C        3.5060    -4.1050    -1.3130 C.ar  1 <1>  -0.1500 
 16 C        6.3530     4.0230     1.5200 C.3   1 <1>   0.1810 
 17 C        7.7820     3.9200     1.0010 C.2   1 <1>   0.4480 
 18 O        8.5450     3.1600     1.5260 O.2   1 <1>  -0.5700 
 19 C        8.2030     4.8310    -0.1800 C.3   1 <1>   0.0610 
 20 C        9.5870     4.4220    -0.7220 C.3   1 <1>  -0.2400 
 21 C        7.2050     4.7460    -1.3500 C.3   1 <1>  -0.2400 
 22 C        8.2960     6.2960     0.2860 C.3   1 <1>  -0.2400 
 23 H        1.8260     2.0200     1.6950 H     1 <1>   0.0800 
 24 H        1.2470     2.5710     0.1270 H     1 <1>   0.0800 
 25 H        4.7140     0.6710    -0.6750 H     1 <1>   0.0800 
 26 H        4.5280     0.5560     1.0750 H     1 <1>   0.0800 
 27 H        3.3780     2.5460    -0.8260 H     1 <1>   0.0800 
 28 H        4.9200    -1.7580     0.6350 H     1 <1>   0.1500 
 29 H        1.3010    -1.5800    -1.6090 H     1 <1>   0.1500 
 30 H        5.2890    -4.0430    -0.1420 H     1 <1>   0.1500 
 31 H        1.6680    -3.8720    -2.3770 H     1 <1>   0.1500 
 32 H        3.6670    -5.1140    -1.6510 H     1 <1>   0.1500 
 33 H        6.3200     3.6840     2.5410 H     1 <1>   0.0800 
 34 H        5.9970     5.0360     1.4760 H     1 <1>   0.0800 
 35 H        9.5690     3.4010    -1.0610 H     1 <1>   0.0800 
 36 H       10.3310     4.5000     0.0520 H     1 <1>   0.0800 
 37 H        9.8850     5.0490    -1.5430 H     1 <1>   0.0800 
 38 H        6.2370     5.1170    -1.0650 H     1 <1>   0.0800 
 39 H        7.0990     3.7260    -1.6750 H     1 <1>   0.0800 
 40 H        7.5500     5.3320    -2.1850 H     1 <1>   0.0800 
 41 H        7.3400     6.6670     0.6070 H     1 <1>   0.0800 
 42 H        8.6460     6.9250    -0.5130 H     1 <1>   0.0800 
 43 H        8.9870     6.3800     1.1070 H     1 <1>   0.0800 
@<TRIPOS>BOND
  1   1   2  2   
  2   2   3  am  
  3   2   4  1   
  4   3   5  1   
  5   3   6  1   
  6   4   7  1   
  7   4  23  1   
  8   4  24  1   
  9   5   8  ar  
 10   5   9  ar  
 11   6   7  1   
 12   6  25  1   
 13   6  26  1   
 14   7  10  1   
 15   7  27  1   
 16   8  11  ar  
 17   8  28  1   
 18   9  12  ar  
 19   9  29  1   
 20  10  13  2   
 21  10  14  1   
 22  11  15  ar  
 23  11  30  1   
 24  12  15  ar  
 25  12  31  1   
 26  14  16  1   
 27  15  32  1   
 28  16  17  1   
 29  16  33  1   
 30  16  34  1   
 31  17  18  2   
 32  17  19  1   
 33  19  20  1   
 34  19  21  1   
 35  19  22  1   
 36  20  35  1   
 37  20  36  1   
 38  20  37  1   
 39  21  38  1   
 40  21  39  1   
 41  21  40  1   
 42  22  41  1   
 43  22  42  1   
 44  22  43  1   
@<TRIPOS>SUBSTRUCTURE
  1 ****   6 GROUP 4 **** **** 0

# MOE 2024.06 (io_trps.svl 2023.06)
