@<TRIPOS>MOLECULE
C-[4-(4-Fluoro-phenyl)-tetrahydro-pyran-4-yl]-methylamine
32 33 1 0 0 
SMALL
USER_CHARGES


@<TRIPOS>ATOM
  1 F        0.4510    -0.9980     1.1090 F     1 <1>  -0.1900 
  2 C       -0.5420    -1.8020     0.8450 C.ar  1 <1>   0.1900 
  3 C       -1.3110    -2.2790     1.8860 C.ar  1 <1>  -0.1500 
  4 C       -0.7900    -2.1520    -0.4650 C.ar  1 <1>  -0.1500 
  5 C       -2.3600    -3.1370     1.6020 C.ar  1 <1>  -0.1500 
  6 C       -1.8410    -3.0110    -0.7360 C.ar  1 <1>  -0.1500 
  7 C       -2.6390    -3.5210     0.2890 C.ar  1 <1>  -0.1430 
  8 C       -3.7760    -4.5040    -0.0690 C.3   1 <1>   0.1430 
  9 C       -4.6630    -4.8960     1.1420 C.3   1 <1>  -0.1600 
 10 C       -4.7210    -3.8610    -1.1140 C.3   1 <1>  -0.1600 
 11 C       -3.1170    -5.7710    -0.6780 C.3   1 <1>   0.3430 
 12 C       -5.8890    -5.7420     0.7470 C.3   1 <1>   0.1200 
 13 C       -6.0400    -4.6310    -1.3040 C.3   1 <1>   0.1200 
 14 N       -1.9990    -6.2770     0.1720 N.4   1 <1>  -0.8530 
 15 O       -5.9650    -5.8540    -0.6400 O.3   1 <1>  -0.5600 
 16 H       -1.0920    -1.9740     2.8950 H     1 <1>   0.1500 
 17 H       -0.1720    -1.7510    -1.2510 H     1 <1>   0.1500 
 18 H       -2.9430    -3.4810     2.4380 H     1 <1>   0.1500 
 19 H       -2.0220    -3.2640    -1.7670 H     1 <1>   0.1500 
 20 H       -5.0380    -3.9980     1.6040 H     1 <1>   0.0800 
 21 H       -4.1030    -5.4220     1.8920 H     1 <1>   0.0800 
 22 H       -4.2370    -3.7710    -2.0700 H     1 <1>   0.0800 
 23 H       -4.9670    -2.8600    -0.8020 H     1 <1>   0.0800 
 24 H       -2.7300    -5.5140    -1.6500 H     1 <1>   0.0800 
 25 H       -3.8560    -6.5430    -0.8160 H     1 <1>   0.0800 
 26 H       -6.8030    -5.2970     1.1060 H     1 <1>   0.0800 
 27 H       -5.8150    -6.7390     1.1470 H     1 <1>   0.0800 
 28 H       -6.2210    -4.8310    -2.3470 H     1 <1>   0.0800 
 29 H       -6.8780    -4.0780    -0.9110 H     1 <1>   0.0800 
 30 H       -1.3750    -5.4900     0.4000 H     1 <1>   0.4500 
 31 H       -1.4570    -7.0020    -0.3100 H     1 <1>   0.4500 
 32 H       -2.3550    -6.6610     1.0520 H     1 <1>   0.4500 
@<TRIPOS>BOND
  1   1   2  1   
  2   2   3  ar  
  3   2   4  ar  
  4   3   5  ar  
  5   3  16  1   
  6   4   6  ar  
  7   4  17  1   
  8   5   7  ar  
  9   5  18  1   
 10   6   7  ar  
 11   6  19  1   
 12   7   8  1   
 13   8   9  1   
 14   8  10  1   
 15   8  11  1   
 16   9  12  1   
 17   9  20  1   
 18   9  21  1   
 19  10  13  1   
 20  10  22  1   
 21  10  23  1   
 22  11  14  1   
 23  11  24  1   
 24  11  25  1   
 25  12  15  1   
 26  12  26  1   
 27  12  27  1   
 28  13  15  1   
 29  13  28  1   
 30  13  29  1   
 31  14  30  1   
 32  14  31  1   
 33  14  32  1   
@<TRIPOS>SUBSTRUCTURE
  1 ****   7 GROUP 4 **** **** 0

# MOE 2024.06 (io_trps.svl 2023.06)
