@<TRIPOS>MOLECULE
N-sec-Butyl-4-chloro-3-(morpholine-4-sulfonyl)-benzamide
44 45 1 0 0 
SMALL
USER_CHARGES


@<TRIPOS>ATOM
  1 CL       0.3500    -0.3610    -3.0320 Cl    1 <1>  -0.1770 
  2 C        1.6000    -1.1440    -2.1010 C.ar  1 <1>   0.1770 
  3 C        1.3720    -2.3070    -1.3750 C.ar  1 <1>  -0.0090 
  4 C        2.8400    -0.5320    -2.1160 C.ar  1 <1>  -0.1500 
  5 S       -0.2340    -3.1440    -1.3080 S.o2  1 <1>   1.4470 
  6 C        2.4440    -2.8180    -0.6510 C.ar  1 <1>  -0.1500 
  7 C        3.8860    -1.0720    -1.3940 C.ar  1 <1>  -0.1500 
  8 O        0.0020    -4.5290    -0.9600 O.2   1 <1>  -0.6500 
  9 O       -1.0690    -2.8740    -2.4570 O.2   1 <1>  -0.6500 
 10 N       -1.0010    -2.4430     0.0300 N.am  1 <1>  -0.8490 
 11 C        3.7120    -2.2350    -0.6440 C.ar  1 <1>   0.0860 
 12 C       -1.6280    -1.1440    -0.2460 C.3   1 <1>   0.1960 
 13 C       -1.9640    -3.3670     0.6640 C.3   1 <1>   0.1960 
 14 C        4.7970    -2.8230     0.1200 C.2   1 <1>   0.5440 
 15 C       -2.2170    -0.5090     1.0350 C.3   1 <1>   0.1200 
 16 C       -3.0860    -2.6650     1.4620 C.3   1 <1>   0.1200 
 17 O        4.5700    -3.3970     1.1660 O.2   1 <1>  -0.5700 
 18 N        6.0840    -2.7500    -0.3330 N.am  1 <1>  -0.7300 
 19 O       -2.6490    -1.4470     1.9880 O.3   1 <1>  -0.5600 
 20 C        7.2620    -3.3160     0.3420 C.3   1 <1>   0.2200 
 21 C        8.2370    -2.1690     0.6380 C.3   1 <1>  -0.1600 
 22 C        7.8510    -4.3800    -0.5820 C.3   1 <1>  -0.2400 
 23 C        9.4640    -2.6100     1.4500 C.3   1 <1>  -0.2400 
 24 H        2.9800     0.3680    -2.6900 H     1 <1>   0.1500 
 25 H        2.2970    -3.7110    -0.0620 H     1 <1>   0.1500 
 26 H        4.8440    -0.5820    -1.4020 H     1 <1>   0.1500 
 27 H       -2.4140    -1.2680    -0.9730 H     1 <1>   0.0800 
 28 H       -0.9070    -0.4640    -0.6600 H     1 <1>   0.0800 
 29 H       -1.4210    -4.0220     1.3240 H     1 <1>   0.0800 
 30 H       -2.4300    -3.9870    -0.0850 H     1 <1>   0.0800 
 31 H       -3.0510     0.1220     0.7830 H     1 <1>   0.0800 
 32 H       -1.4680     0.0970     1.5130 H     1 <1>   0.0800 
 33 H       -3.4060    -3.2870     2.2780 H     1 <1>   0.0800 
 34 H       -3.9330    -2.4730     0.8270 H     1 <1>   0.0800 
 35 H        6.2700    -2.3710    -1.2590 H     1 <1>   0.3700 
 36 H        6.9620    -3.7760     1.2700 H     1 <1>   0.0800 
 37 H        7.7140    -1.4190     1.2060 H     1 <1>   0.0800 
 38 H        8.5680    -1.7230    -0.2840 H     1 <1>   0.0800 
 39 H        8.2200    -3.9390    -1.4900 H     1 <1>   0.0800 
 40 H        7.1000    -5.1130    -0.8170 H     1 <1>   0.0800 
 41 H        8.6620    -4.8870    -0.0920 H     1 <1>   0.0800 
 42 H        9.1560    -3.0890     2.3630 H     1 <1>   0.0800 
 43 H       10.0610    -1.7520     1.7030 H     1 <1>   0.0800 
 44 H       10.0760    -3.2910     0.8870 H     1 <1>   0.0800 
@<TRIPOS>BOND
  1   1   2  1   
  2   2   3  ar  
  3   2   4  ar  
  4   3   5  1   
  5   3   6  ar  
  6   4   7  ar  
  7   4  24  1   
  8   5   8  2   
  9   5   9  2   
 10   5  10  am  
 11   6  11  ar  
 12   6  25  1   
 13   7  11  ar  
 14   7  26  1   
 15  10  12  1   
 16  10  13  1   
 17  11  14  1   
 18  12  15  1   
 19  12  27  1   
 20  12  28  1   
 21  13  16  1   
 22  13  29  1   
 23  13  30  1   
 24  14  17  2   
 25  14  18  am  
 26  15  19  1   
 27  15  31  1   
 28  15  32  1   
 29  16  19  1   
 30  16  33  1   
 31  16  34  1   
 32  18  20  1   
 33  18  35  1   
 34  20  21  1   
 35  20  22  1   
 36  20  36  1   
 37  21  23  1   
 38  21  37  1   
 39  21  38  1   
 40  22  39  1   
 41  22  40  1   
 42  22  41  1   
 43  23  42  1   
 44  23  43  1   
 45  23  44  1   
@<TRIPOS>SUBSTRUCTURE
  1 ****   6 GROUP 4 **** **** 0

# MOE 2024.06 (io_trps.svl 2023.06)
