@<TRIPOS>MOLECULE
4-[3-(4-Chloro-phenyl)-[1,2,4]oxadiazol-5-yl]-1-(4-methyl-piperazin-1-yl)-butan-
46 48 1 0 0 
SMALL
USER_CHARGES


@<TRIPOS>ATOM
  1 CL       3.0580    -1.1530     1.5250 Cl    1 <1>  -0.1770 
  2 C        3.9580     0.1910     0.8760 C.ar  1 <1>   0.1770 
  3 C        4.1190     1.3340     1.6350 C.ar  1 <1>  -0.1500 
  4 C        4.5000     0.1000    -0.3910 C.ar  1 <1>  -0.1500 
  5 C        4.8380     2.3960     1.1170 C.ar  1 <1>  -0.1500 
  6 C        5.2170     1.1690    -0.8990 C.ar  1 <1>  -0.1500 
  7 C        5.4100     2.3400    -0.1590 C.ar  1 <1>   0.0540 
  8 C        6.1820     3.4480    -0.6970 C.2   1 <1>   0.4620 
  9 N        6.8760     3.4220    -1.7800 N.2   1 <1>  -0.4100 
 10 N        6.2800     4.6290    -0.0800 N.2   1 <1>  -0.5650 
 11 O        7.4090     4.5920    -1.9390 O.3   1 <1>  -0.0190 
 12 C        7.0250     5.2640    -0.8850 C.2   1 <1>   0.2980 
 13 C        7.5380     6.6820    -0.6990 C.3   1 <1>   0.0200 
 14 C        9.0500     6.6860    -0.4140 C.3   1 <1>  -0.1600 
 15 C        9.4020     6.0630     0.9540 C.3   1 <1>  -0.0990 
 16 C       10.7990     5.4620     0.9730 C.2   1 <1>   0.5690 
 17 O       11.6610     6.0830     1.5420 O.2   1 <1>  -0.5700 
 18 N       11.0740     4.2570     0.3650 N.am  1 <1>  -0.6600 
 19 C       12.4810     3.7490     0.2980 C.3   1 <1>   0.1400 
 20 C       10.0650     3.3580    -0.2820 C.3   1 <1>   0.1400 
 21 C       12.5730     2.3040     0.8200 C.3   1 <1>   0.3430 
 22 C       10.1970     1.9060     0.2190 C.3   1 <1>   0.3430 
 23 N       11.6080     1.3870     0.1130 N.4   1 <1>  -0.9590 
 24 C       11.7070    -0.0070     0.6430 C.3   1 <1>   0.2630 
 25 H        3.6830     1.3860     2.6170 H     1 <1>   0.1500 
 26 H        4.3560    -0.7960    -0.9680 H     1 <1>   0.1500 
 27 H        4.9550     3.2860     1.7130 H     1 <1>   0.1500 
 28 H        5.6300     1.0940    -1.8910 H     1 <1>   0.1500 
 29 H        7.0090     7.1520     0.1120 H     1 <1>   0.0800 
 30 H        7.3350     7.2410    -1.5950 H     1 <1>   0.0800 
 31 H        9.4170     7.6990    -0.4360 H     1 <1>   0.0800 
 32 H        9.5510     6.1530    -1.2040 H     1 <1>   0.0800 
 33 H        8.6960     5.3110     1.2500 H     1 <1>   0.0800 
 34 H        9.3520     6.8310     1.7060 H     1 <1>   0.0800 
 35 H       13.1390     4.3680     0.8840 H     1 <1>   0.0800 
 36 H       12.8250     3.7920    -0.7200 H     1 <1>   0.0800 
 37 H       10.1930     3.3880    -1.3500 H     1 <1>   0.0800 
 38 H        9.0680     3.6860    -0.0670 H     1 <1>   0.0800 
 39 H       12.3620     2.3120     1.8770 H     1 <1>   0.0800 
 40 H       13.5820     1.9480     0.6880 H     1 <1>   0.0800 
 41 H        9.5310     1.2780    -0.3510 H     1 <1>   0.0800 
 42 H        9.8780     1.8740     1.2480 H     1 <1>   0.0800 
 43 H       11.8620     1.3810    -0.8850 H     1 <1>   0.4500 
 44 H       11.4470    -0.0300     1.6890 H     1 <1>   0.0800 
 45 H       12.7130    -0.3800     0.5310 H     1 <1>   0.0800 
 46 H       11.0380    -0.6610     0.1070 H     1 <1>   0.0800 
@<TRIPOS>BOND
  1   1   2  1   
  2   2   3  ar  
  3   2   4  ar  
  4   3   5  ar  
  5   3  25  1   
  6   4   6  ar  
  7   4  26  1   
  8   5   7  ar  
  9   5  27  1   
 10   6   7  ar  
 11   6  28  1   
 12   7   8  1   
 13   8   9  2   
 14   8  10  1   
 15   9  11  1   
 16  10  12  2   
 17  11  12  1   
 18  12  13  1   
 19  13  14  1   
 20  13  29  1   
 21  13  30  1   
 22  14  15  1   
 23  14  31  1   
 24  14  32  1   
 25  15  16  1   
 26  15  33  1   
 27  15  34  1   
 28  16  17  2   
 29  16  18  am  
 30  18  19  1   
 31  18  20  1   
 32  19  21  1   
 33  19  35  1   
 34  19  36  1   
 35  20  22  1   
 36  20  37  1   
 37  20  38  1   
 38  21  23  1   
 39  21  39  1   
 40  21  40  1   
 41  22  23  1   
 42  22  41  1   
 43  22  42  1   
 44  23  24  1   
 45  23  43  1   
 46  24  44  1   
 47  24  45  1   
 48  24  46  1   
@<TRIPOS>SUBSTRUCTURE
  1 ****   8 GROUP 4 **** **** 0

# MOE 2024.06 (io_trps.svl 2023.06)
