@<TRIPOS>MOLECULE
2-[(8,8-Dimethyl-8,9-dihydro-6H-7-oxa-11-thia-2,4,10-triaza-benzo[b]fluoren-1-yl
44 47 1 0 0 
SMALL
USER_CHARGES


@<TRIPOS>ATOM
  1 S       -0.3130    -0.3900    -0.4190 S.3   1 <1>  -0.0800 
  2 C       -1.8660     0.4480    -0.3090 C.ar  1 <1>   0.2970 
  3 C        0.5880     1.1140    -0.1180 C.ar  1 <1>   0.0400 
  4 N       -3.0120    -0.1920    -0.4550 N.ar  1 <1>  -0.5670 
  5 C       -1.6670     1.7980    -0.0610 C.ar  1 <1>   0.0000 
  6 C        1.9570     1.3220    -0.0490 C.ar  1 <1>   0.4100 
  7 C       -0.2780     2.1640     0.0420 C.ar  1 <1>   0.2560 
  8 C       -4.0720     0.5940    -0.3420 C.ar  1 <1>   0.1660 
  9 C       -2.7970     2.5900     0.0520 C.ar  1 <1>  -0.1500 
 10 N        2.4080     2.5470     0.1650 N.ar  1 <1>  -0.6200 
 11 N        2.8920     0.3100    -0.1880 N.pl3 1 <1>  -0.8380 
 12 N        0.1750     3.3940     0.2660 N.ar  1 <1>  -0.5660 
 13 C       -4.0220     1.9660    -0.0920 C.ar  1 <1>  -0.1430 
 14 C       -5.4180    -0.0790    -0.5170 C.3   1 <1>  -0.0170 
 15 C        1.4910     3.4970     0.3090 C.ar  1 <1>   0.4700 
 16 C        2.8670    -0.8310     0.7770 C.3   1 <1>   0.2090 
 17 C        4.2460     0.6400    -0.7170 C.3   1 <1>   0.1290 
 18 C       -5.3000     2.7840     0.0410 C.3   1 <1>   0.2630 
 19 C       -6.5680     0.7530     0.0700 C.3   1 <1>   0.2800 
 20 C        2.8030    -2.1680     0.0330 C.3   1 <1>   0.1200 
 21 O       -6.4330     2.0700    -0.3660 O.3   1 <1>  -0.5600 
 22 C       -7.9110     0.2730    -0.4820 C.3   1 <1>  -0.2400 
 23 C       -6.6110     0.7080     1.6060 C.3   1 <1>  -0.2400 
 24 O        2.8440    -3.2090     0.9530 O.3   1 <1>  -0.6800 
 25 H       -2.7020     3.6450     0.2460 H     1 <1>   0.1500 
 26 H       -5.4010    -1.0470    -0.0510 H     1 <1>   0.0800 
 27 H       -5.5780    -0.2290    -1.5690 H     1 <1>   0.0800 
 28 H        1.8780     4.4870     0.4860 H     1 <1>   0.1500 
 29 H        2.0110    -0.7450     1.4240 H     1 <1>   0.0800 
 30 H        3.7540    -0.8010     1.3860 H     1 <1>   0.0800 
 31 H        4.1690     1.4060    -1.4700 H     1 <1>   0.0800 
 32 H        4.6960    -0.2310    -1.1590 H     1 <1>   0.0800 
 33 H        4.8720     1.0000     0.0810 H     1 <1>   0.0800 
 34 H       -5.2410     3.6630    -0.5770 H     1 <1>   0.0800 
 35 H       -5.4440     3.0940     1.0610 H     1 <1>   0.0800 
 36 H        3.6440    -2.2730    -0.6280 H     1 <1>   0.0800 
 37 H        1.8870    -2.2440    -0.5240 H     1 <1>   0.0800 
 38 H       -7.9240     0.3510    -1.5550 H     1 <1>   0.0800 
 39 H       -8.7120     0.8700    -0.0820 H     1 <1>   0.0800 
 40 H       -8.0830    -0.7530    -0.2120 H     1 <1>   0.0800 
 41 H       -5.6570     0.9520     2.0370 H     1 <1>   0.0800 
 42 H       -6.8660    -0.2840     1.9340 H     1 <1>   0.0800 
 43 H       -7.3560     1.3870     1.9780 H     1 <1>   0.0800 
 44 H        2.7300    -4.0690     0.5030 H     1 <1>   0.4000 
@<TRIPOS>BOND
  1   1   2  1   
  2   1   3  1   
  3   2   4  ar  
  4   2   5  ar  
  5   3   6  ar  
  6   3   7  ar  
  7   4   8  ar  
  8   5   7  1   
  9   5   9  ar  
 10   6  10  ar  
 11   6  11  1   
 12   7  12  ar  
 13   8  13  ar  
 14   8  14  1   
 15   9  13  ar  
 16   9  25  1   
 17  10  15  ar  
 18  11  16  1   
 19  11  17  1   
 20  12  15  ar  
 21  13  18  1   
 22  14  19  1   
 23  14  26  1   
 24  14  27  1   
 25  15  28  1   
 26  16  20  1   
 27  16  29  1   
 28  16  30  1   
 29  17  31  1   
 30  17  32  1   
 31  17  33  1   
 32  18  21  1   
 33  18  34  1   
 34  18  35  1   
 35  19  21  1   
 36  19  22  1   
 37  19  23  1   
 38  20  24  1   
 39  20  36  1   
 40  20  37  1   
 41  22  38  1   
 42  22  39  1   
 43  22  40  1   
 44  23  41  1   
 45  23  42  1   
 46  23  43  1   
 47  24  44  1   
@<TRIPOS>SUBSTRUCTURE
  1 ****   2 GROUP 4 **** **** 0

# MOE 2024.06 (io_trps.svl 2023.06)
