@<TRIPOS>MOLECULE
6-(4-Dimethylamino-6-pyrrolidin-1-yl-[1,3,5]triazin-2-yloxy)-pyridazin-3-ol
38 40 1 0 0 
SMALL
USER_CHARGES


@<TRIPOS>ATOM
  1 O       -0.1880    -0.4390    -0.3920 O.3   1 <1>  -0.1650 
  2 C       -1.3510    -1.0880    -0.2360 C.ar  1 <1>   0.7020 
  3 C        1.0160    -1.0590    -0.2850 C.ar  1 <1>   0.3920 
  4 N       -1.3480    -2.3920    -0.1860 N.ar  1 <1>  -0.6200 
  5 N       -2.3990    -0.3180    -0.1400 N.ar  1 <1>  -0.6200 
  6 N        1.8140    -0.9710    -1.3450 N.ar  1 <1>  -0.3100 
  7 C        1.3600    -1.7000     0.8970 C.ar  1 <1>  -0.1500 
  8 C       -2.5300    -2.9270    -0.0290 C.ar  1 <1>   0.7200 
  9 C       -3.5280    -0.9660     0.0170 C.ar  1 <1>   0.7200 
 10 N        3.0000    -1.5370    -1.3020 N.ar  1 <1>  -0.3100 
 11 C        2.5910    -2.2870     0.9460 C.ar  1 <1>  -0.1500 
 12 N       -3.6510    -2.2670     0.0800 N.ar  1 <1>  -0.6200 
 13 N       -2.5830    -4.2960     0.0340 N.pl3 1 <1>  -0.8380 
 14 N       -4.6780    -0.2110     0.1250 N.pl3 1 <1>  -0.8380 
 15 C        3.3980    -2.1910    -0.1840 C.ar  1 <1>   0.1390 
 16 C       -3.8370    -5.0760     0.0170 C.3   1 <1>   0.2090 
 17 C       -1.4030    -5.1600    -0.1940 C.3   1 <1>   0.2090 
 18 C       -4.6480     1.2680     0.3130 C.3   1 <1>   0.1290 
 19 C       -6.0380    -0.8160     0.0440 C.3   1 <1>   0.1290 
 20 O        4.5290    -2.7300    -0.1590 O.3   1 <1>  -0.8290 
 21 C       -3.4210    -6.4610    -0.4670 C.3   1 <1>  -0.1600 
 22 C       -1.9450    -6.5800    -0.0900 C.3   1 <1>  -0.1600 
 23 H        0.6850    -1.7330     1.7280 H     1 <1>   0.1500 
 24 H        2.9680    -2.8150     1.7990 H     1 <1>   0.1500 
 25 H       -4.5660    -4.6320    -0.6390 H     1 <1>   0.0800 
 26 H       -4.2310    -5.1240     1.0180 H     1 <1>   0.0800 
 27 H       -0.6370    -4.9680     0.5400 H     1 <1>   0.0800 
 28 H       -1.0100    -4.9720    -1.1800 H     1 <1>   0.0800 
 29 H       -3.7560     1.5670     0.8370 H     1 <1>   0.0800 
 30 H       -5.4980     1.5850     0.8910 H     1 <1>   0.0800 
 31 H       -4.6680     1.7530    -0.6470 H     1 <1>   0.0800 
 32 H       -6.0200    -1.7120    -0.5520 H     1 <1>   0.0800 
 33 H       -6.7250    -0.1240    -0.4100 H     1 <1>   0.0800 
 34 H       -6.3810    -1.0610     1.0340 H     1 <1>   0.0800 
 35 H       -3.5270    -6.4980    -1.5370 H     1 <1>   0.0800 
 36 H       -4.0230    -7.2350    -0.0260 H     1 <1>   0.0800 
 37 H       -1.8530    -6.9100     0.9300 H     1 <1>   0.0800 
 38 H       -1.4080    -7.2570    -0.7290 H     1 <1>   0.0800 
@<TRIPOS>BOND
  1   1   2  1   
  2   1   3  1   
  3   2   4  ar  
  4   2   5  ar  
  5   3   6  ar  
  6   3   7  ar  
  7   4   8  ar  
  8   5   9  ar  
  9   6  10  ar  
 10   7  11  ar  
 11   7  23  1   
 12   8  12  ar  
 13   8  13  1   
 14   9  12  ar  
 15   9  14  1   
 16  10  15  ar  
 17  11  15  ar  
 18  11  24  1   
 19  13  16  1   
 20  13  17  1   
 21  14  18  1   
 22  14  19  1   
 23  15  20  1   
 24  16  21  1   
 25  16  25  1   
 26  16  26  1   
 27  17  22  1   
 28  17  27  1   
 29  17  28  1   
 30  18  29  1   
 31  18  30  1   
 32  18  31  1   
 33  19  32  1   
 34  19  33  1   
 35  19  34  1   
 36  21  22  1   
 37  21  35  1   
 38  21  36  1   
 39  22  37  1   
 40  22  38  1   
@<TRIPOS>SUBSTRUCTURE
  1 ****   4 GROUP 4 **** **** 0

# MOE 2024.06 (io_trps.svl 2023.06)
