@<TRIPOS>MOLECULE
4-Ethoxy-N-(4-fluoro-phenyl)-N-[2-(4-methyl-piperazin-1-yl)-2-oxo-ethyl]-benzene
57 59 1 0 0 
SMALL
USER_CHARGES


@<TRIPOS>ATOM
  1 S        0.5220     0.0610    -0.4540 S.o2  1 <1>   1.4470 
  2 O        0.6910     0.5840    -1.7920 O.2   1 <1>  -0.6500 
  3 O        1.5420    -0.7920     0.1070 O.2   1 <1>  -0.6500 
  4 N        0.4120     1.4590     0.5720 N.am  1 <1>  -0.6930 
  5 C       -1.1090    -0.6980    -0.2290 C.ar  1 <1>  -0.0090 
  6 C       -0.6550     2.3470     0.4550 C.ar  1 <1>   0.1990 
  7 C        1.2710     1.4890     1.8030 C.3   1 <1>   0.2570 
  8 C       -2.1950    -0.3150    -1.0100 C.ar  1 <1>  -0.1500 
  9 C       -1.3250    -1.6510     0.7600 C.ar  1 <1>  -0.1500 
 10 C       -0.8500     3.0750    -0.7180 C.ar  1 <1>  -0.1500 
 11 C       -1.5570     2.5100     1.5070 C.ar  1 <1>  -0.1500 
 12 C        2.7900     1.3550     1.5920 C.2   1 <1>   0.5690 
 13 C       -3.4530    -0.8580    -0.8150 C.ar  1 <1>  -0.1500 
 14 C       -2.5790    -2.2010     0.9620 C.ar  1 <1>  -0.1500 
 15 C       -1.9130     3.9520    -0.8430 C.ar  1 <1>  -0.1500 
 16 C       -2.6250     3.3850     1.3990 C.ar  1 <1>  -0.1500 
 17 O        3.4220     0.8830     2.5060 O.2   1 <1>  -0.5700 
 18 N        3.4380     1.7470     0.4400 N.am  1 <1>  -0.6600 
 19 C       -3.6520    -1.8090     0.1800 C.ar  1 <1>   0.0830 
 20 C       -2.7820     4.0910     0.2220 C.ar  1 <1>   0.1900 
 21 C        2.9260     2.7540    -0.5390 C.3   1 <1>   0.1400 
 22 C        4.7040     1.0580     0.0390 C.3   1 <1>   0.1400 
 23 O       -4.8450    -2.3900     0.4450 O.3   1 <1>  -0.3630 
 24 F       -3.7890     4.9190     0.1120 F     1 <1>  -0.1900 
 25 C        4.0380     3.7280    -0.9770 C.3   1 <1>   0.3430 
 26 C        5.7810     2.0670    -0.3910 C.3   1 <1>   0.3430 
 27 C       -5.9980    -2.0840    -0.3050 C.3   1 <1>   0.1200 
 28 N        5.2720     3.0080    -1.4520 N.4   1 <1>  -0.9590 
 29 C       -7.1530    -2.9170     0.2420 C.3   1 <1>  -0.2400 
 30 C        6.3350     3.9690    -1.8730 C.3   1 <1>   0.2630 
 31 H        0.9640     0.6840     2.4470 H     1 <1>   0.0800 
 32 H        1.1010     2.4080     2.3330 H     1 <1>   0.0800 
 33 H       -2.0550     0.4220    -1.7830 H     1 <1>   0.1500 
 34 H       -0.5040    -1.9720     1.3800 H     1 <1>   0.1500 
 35 H       -0.1690     2.9540    -1.5410 H     1 <1>   0.1500 
 36 H       -1.4330     1.9440     2.4130 H     1 <1>   0.1500 
 37 H       -4.2600    -0.5300    -1.4420 H     1 <1>   0.1500 
 38 H       -2.7350    -2.9390     1.7290 H     1 <1>   0.1500 
 39 H       -2.0740     4.5180    -1.7430 H     1 <1>   0.1500 
 40 H       -3.3260     3.5170     2.2040 H     1 <1>   0.1500 
 41 H        2.1260     3.3240    -0.1000 H     1 <1>   0.0800 
 42 H        2.5390     2.2460    -1.4040 H     1 <1>   0.0800 
 43 H        4.4910     0.3840    -0.7730 H     1 <1>   0.0800 
 44 H        5.0870     0.4650     0.8520 H     1 <1>   0.0800 
 45 H        4.2890     4.3560    -0.1380 H     1 <1>   0.0800 
 46 H        3.6590     4.3620    -1.7610 H     1 <1>   0.0800 
 47 H        6.6390     1.5280    -0.7570 H     1 <1>   0.0800 
 48 H        6.0870     2.6270     0.4780 H     1 <1>   0.0800 
 49 H       -5.8080    -2.3290    -1.3360 H     1 <1>   0.0800 
 50 H       -6.2040    -1.0330    -0.2010 H     1 <1>   0.0800 
 51 H        4.9990     2.4320    -2.2630 H     1 <1>   0.4500 
 52 H       -6.9310    -3.9650     0.1480 H     1 <1>   0.0800 
 53 H       -8.0500    -2.7050    -0.3120 H     1 <1>   0.0800 
 54 H       -7.3240    -2.6770     1.2760 H     1 <1>   0.0800 
 55 H        6.6390     4.5810    -1.0390 H     1 <1>   0.0800 
 56 H        5.9690     4.6120    -2.6580 H     1 <1>   0.0800 
 57 H        7.1970     3.4370    -2.2420 H     1 <1>   0.0800 
@<TRIPOS>BOND
  1   1   2  2   
  2   1   3  2   
  3   1   4  am  
  4   1   5  1   
  5   4   6  1   
  6   4   7  1   
  7   5   8  ar  
  8   5   9  ar  
  9   6  10  ar  
 10   6  11  ar  
 11   7  12  1   
 12   7  31  1   
 13   7  32  1   
 14   8  13  ar  
 15   8  33  1   
 16   9  14  ar  
 17   9  34  1   
 18  10  15  ar  
 19  10  35  1   
 20  11  16  ar  
 21  11  36  1   
 22  12  17  2   
 23  12  18  am  
 24  13  19  ar  
 25  13  37  1   
 26  14  19  ar  
 27  14  38  1   
 28  15  20  ar  
 29  15  39  1   
 30  16  20  ar  
 31  16  40  1   
 32  18  21  1   
 33  18  22  1   
 34  19  23  1   
 35  20  24  1   
 36  21  25  1   
 37  21  41  1   
 38  21  42  1   
 39  22  26  1   
 40  22  43  1   
 41  22  44  1   
 42  23  27  1   
 43  25  28  1   
 44  25  45  1   
 45  25  46  1   
 46  26  28  1   
 47  26  47  1   
 48  26  48  1   
 49  27  29  1   
 50  27  49  1   
 51  27  50  1   
 52  28  30  1   
 53  28  51  1   
 54  29  52  1   
 55  29  53  1   
 56  29  54  1   
 57  30  55  1   
 58  30  56  1   
 59  30  57  1   
@<TRIPOS>SUBSTRUCTURE
  1 ****   4 GROUP 4 **** **** 0

# MOE 2024.06 (io_trps.svl 2023.06)
