@<TRIPOS>MOLECULE
4-Chloro-N,N-dimethyl-3-(morpholine-4-sulfonyl)-benzamide
38 39 1 0 0 
SMALL
USER_CHARGES


@<TRIPOS>ATOM
  1 CL       0.5760     0.8610     1.5750 Cl    1 <1>  -0.1770 
  2 C        1.6930    -0.2530     0.8330 C.ar  1 <1>   0.1770 
  3 C        1.3980    -1.6010     0.6650 C.ar  1 <1>  -0.0090 
  4 C        2.8920     0.2860     0.4000 C.ar  1 <1>  -0.1500 
  5 S       -0.1600    -2.3610     1.1920 S.o2  1 <1>   1.4470 
  6 C        2.3540    -2.3800     0.0220 C.ar  1 <1>  -0.1500 
  7 C        3.8230    -0.5200    -0.2250 C.ar  1 <1>  -0.1500 
  8 O        0.0890    -3.7700     1.4020 O.2   1 <1>  -0.6500 
  9 O       -0.8280    -1.6290     2.2440 O.2   1 <1>  -0.6500 
 10 N       -1.1310    -2.2490    -0.1930 N.am  1 <1>  -0.8490 
 11 C        3.5730    -1.8750    -0.4280 C.ar  1 <1>   0.0860 
 12 C       -1.6930    -0.9030    -0.3990 C.3   1 <1>   0.1960 
 13 C       -2.2260    -3.2310    -0.1660 C.3   1 <1>   0.1960 
 14 C        4.5300    -2.7340    -1.0990 C.2   1 <1>   0.5440 
 15 C       -2.5770    -0.8570    -1.6590 C.3   1 <1>   0.1200 
 16 C       -3.1030    -3.1250    -1.4270 C.3   1 <1>   0.1200 
 17 O        4.1590    -3.3860    -2.0560 O.2   1 <1>  -0.5700 
 18 N        5.8430    -2.8350    -0.6820 N.am  1 <1>  -0.6600 
 19 O       -3.5870    -1.8220    -1.5850 O.3   1 <1>  -0.5600 
 20 C        6.8590    -3.5600    -1.4950 C.3   1 <1>   0.0600 
 21 C        6.3230    -2.4000     0.6580 C.3   1 <1>   0.0600 
 22 H        3.0880     1.3330     0.5500 H     1 <1>   0.1500 
 23 H        2.1530    -3.4270    -0.1480 H     1 <1>   0.1500 
 24 H        4.7540    -0.1020    -0.5720 H     1 <1>   0.1500 
 25 H       -0.8960    -0.1900    -0.5160 H     1 <1>   0.0800 
 26 H       -2.2850    -0.6080     0.4520 H     1 <1>   0.0800 
 27 H       -2.8390    -3.0770     0.7070 H     1 <1>   0.0800 
 28 H       -1.8200    -4.2270    -0.1150 H     1 <1>   0.0800 
 29 H       -1.9880    -1.0410    -2.5400 H     1 <1>   0.0800 
 30 H       -3.0480     0.1050    -1.7490 H     1 <1>   0.0800 
 31 H       -3.9500    -3.7830    -1.3480 H     1 <1>   0.0800 
 32 H       -2.5360    -3.3910    -2.3020 H     1 <1>   0.0800 
 33 H        6.5280    -3.6630    -2.5140 H     1 <1>   0.0800 
 34 H        7.0170    -4.5420    -1.0830 H     1 <1>   0.0800 
 35 H        7.7880    -3.0180    -1.4920 H     1 <1>   0.0800 
 36 H        5.4980    -2.1690     1.3090 H     1 <1>   0.0800 
 37 H        6.9460    -1.5290     0.5550 H     1 <1>   0.0800 
 38 H        6.8970    -3.1890     1.1120 H     1 <1>   0.0800 
@<TRIPOS>BOND
  1   1   2  1   
  2   2   3  ar  
  3   2   4  ar  
  4   3   5  1   
  5   3   6  ar  
  6   4   7  ar  
  7   4  22  1   
  8   5   8  2   
  9   5   9  2   
 10   5  10  am  
 11   6  11  ar  
 12   6  23  1   
 13   7  11  ar  
 14   7  24  1   
 15  10  12  1   
 16  10  13  1   
 17  11  14  1   
 18  12  15  1   
 19  12  25  1   
 20  12  26  1   
 21  13  16  1   
 22  13  27  1   
 23  13  28  1   
 24  14  17  2   
 25  14  18  am  
 26  15  19  1   
 27  15  29  1   
 28  15  30  1   
 29  16  19  1   
 30  16  31  1   
 31  16  32  1   
 32  18  20  1   
 33  18  21  1   
 34  20  33  1   
 35  20  34  1   
 36  20  35  1   
 37  21  36  1   
 38  21  37  1   
 39  21  38  1   
@<TRIPOS>SUBSTRUCTURE
  1 ****   3 GROUP 4 **** **** 0

# MOE 2024.06 (io_trps.svl 2023.06)
