@<TRIPOS>MOLECULE
4-(3,4-Dimethoxy-phenyl)-2-oxo-6-piperidin-1-ylmethyl-1,2,3,4-tetrahydro-pyrimid
56 58 1 0 0 
SMALL
USER_CHARGES


@<TRIPOS>ATOM
  1 O        0.5340     1.0920     2.2650 O.2   1 <1>  -0.5700 
  2 C        0.3490     2.1910     1.8030 C.2   1 <1>   0.6900 
  3 N       -0.3610     2.3250     0.6560 N.am  1 <1>  -0.5390 
  4 N        0.8420     3.2900     2.3920 N.am  1 <1>  -0.7300 
  5 C       -0.6270     3.5460     0.0500 C.2   1 <1>  -0.0290 
  6 C        0.8830     4.6110     1.7410 C.3   1 <1>   0.5020 
  7 C       -0.0910     4.6940     0.5580 C.2   1 <1>  -0.1240 
  8 C       -1.5390     3.4760    -1.1780 C.3   1 <1>   0.4810 
  9 C        2.3160     4.8580     1.2810 C.ar  1 <1>  -0.1440 
 10 C       -0.3410     6.0290     0.1020 C.2   1 <1>   0.7060 
 11 N       -2.9400     3.2350    -0.7360 N.4   1 <1>  -0.9590 
 12 C        2.8950     4.0530     0.3080 C.ar  1 <1>  -0.1500 
 13 C        3.0610     5.8960     1.8250 C.ar  1 <1>  -0.1500 
 14 O       -1.1520     6.2730    -0.7700 O.2   1 <1>  -0.5700 
 15 O        0.2950     7.0500     0.6830 O.3   1 <1>  -0.4300 
 16 C       -3.7760     2.7150    -1.8540 C.3   1 <1>   0.3430 
 17 C       -3.5250     4.4760    -0.1450 C.3   1 <1>   0.3430 
 18 C        4.1900     4.2780    -0.1240 C.ar  1 <1>   0.0830 
 19 C        4.3550     6.1350     1.3920 C.ar  1 <1>  -0.1500 
 20 C        0.1190     8.3900     0.2580 C.3   1 <1>   0.0400 
 21 C       -5.1740     2.3730    -1.3360 C.3   1 <1>  -0.1600 
 22 C       -4.9200     4.1770     0.4070 C.3   1 <1>  -0.1600 
 23 O        4.6860     3.4300    -1.0560 O.3   1 <1>  -0.3630 
 24 C        4.9210     5.3450     0.4070 C.ar  1 <1>   0.0830 
 25 C       -5.8410     3.5810    -0.6660 C.3   1 <1>  -0.1600 
 26 C        5.7470     2.5980    -0.6380 C.3   1 <1>   0.0400 
 27 O        6.1770     5.6560     0.0020 O.3   1 <1>  -0.3630 
 28 C        6.3220     6.0780    -1.3370 C.3   1 <1>   0.0400 
 29 H       -0.6190     1.4150     0.2690 H     1 <1>   0.3700 
 30 H        1.5310     3.1330     3.1270 H     1 <1>   0.3700 
 31 H        0.6080     5.3430     2.4820 H     1 <1>   0.0800 
 32 H       -1.2060     2.6650    -1.8040 H     1 <1>   0.0800 
 33 H       -1.4850     4.3790    -1.7620 H     1 <1>   0.0800 
 34 H       -2.9130     2.5300     0.0110 H     1 <1>   0.4500 
 35 H        2.3550     3.2300    -0.1230 H     1 <1>   0.1500 
 36 H        2.6430     6.5330     2.5860 H     1 <1>   0.1500 
 37 H       -3.3250     1.8310    -2.2770 H     1 <1>   0.0800 
 38 H       -3.8540     3.4620    -2.6290 H     1 <1>   0.0800 
 39 H       -3.5890     5.2450    -0.8990 H     1 <1>   0.0800 
 40 H       -2.8970     4.8400     0.6510 H     1 <1>   0.0800 
 41 H        4.9300     6.9410     1.8100 H     1 <1>   0.1500 
 42 H        0.7470     9.0240     0.8590 H     1 <1>   0.0800 
 43 H       -0.9130     8.6670     0.3820 H     1 <1>   0.0800 
 44 H        0.4040     8.4680    -0.7780 H     1 <1>   0.0800 
 45 H       -5.1080     1.5560    -0.6390 H     1 <1>   0.0800 
 46 H       -5.7840     2.0440    -2.1600 H     1 <1>   0.0800 
 47 H       -5.3520     5.0900     0.7790 H     1 <1>   0.0800 
 48 H       -4.8370     3.4990     1.2390 H     1 <1>   0.0800 
 49 H       -6.7770     3.2850    -0.2210 H     1 <1>   0.0800 
 50 H       -6.0560     4.3310    -1.4100 H     1 <1>   0.0800 
 51 H        5.9830     1.9240    -1.4410 H     1 <1>   0.0800 
 52 H        5.4320     2.0440     0.2290 H     1 <1>   0.0800 
 53 H        6.6040     3.2030    -0.4030 H     1 <1>   0.0800 
 54 H        7.3360     6.4080    -1.4770 H     1 <1>   0.0800 
 55 H        5.6410     6.8900    -1.5210 H     1 <1>   0.0800 
 56 H        6.1110     5.2560    -1.9960 H     1 <1>   0.0800 
@<TRIPOS>BOND
  1   1   2  2   
  2   2   3  am  
  3   2   4  am  
  4   3   5  1   
  5   3  29  1   
  6   4   6  1   
  7   4  30  1   
  8   5   7  2   
  9   5   8  1   
 10   6   7  1   
 11   6   9  1   
 12   6  31  1   
 13   7  10  1   
 14   8  11  1   
 15   8  32  1   
 16   8  33  1   
 17   9  12  ar  
 18   9  13  ar  
 19  10  14  2   
 20  10  15  1   
 21  11  16  1   
 22  11  17  1   
 23  11  34  1   
 24  12  18  ar  
 25  12  35  1   
 26  13  19  ar  
 27  13  36  1   
 28  15  20  1   
 29  16  21  1   
 30  16  37  1   
 31  16  38  1   
 32  17  22  1   
 33  17  39  1   
 34  17  40  1   
 35  18  23  1   
 36  18  24  ar  
 37  19  24  ar  
 38  19  41  1   
 39  20  42  1   
 40  20  43  1   
 41  20  44  1   
 42  21  25  1   
 43  21  45  1   
 44  21  46  1   
 45  22  25  1   
 46  22  47  1   
 47  22  48  1   
 48  23  26  1   
 49  24  27  1   
 50  25  49  1   
 51  25  50  1   
 52  26  51  1   
 53  26  52  1   
 54  26  53  1   
 55  27  28  1   
 56  28  54  1   
 57  28  55  1   
 58  28  56  1   
@<TRIPOS>SUBSTRUCTURE
  1 ****   7 GROUP 4 **** **** 0

# MOE 2024.06 (io_trps.svl 2023.06)
