@<TRIPOS>MOLECULE
5-Ethyl-4,5,6,7-tetrahydro-2H-indazole-3-carboxylic acid
27 28 1 0 0 
SMALL
USER_CHARGES


@<TRIPOS>ATOM
  1 O       -0.3470     0.1110     0.1700 O.co2 1 <1>  -0.9000 
  2 C       -1.5010     0.4960     0.4580 C.2   1 <1>   1.0330 
  3 O       -2.2780    -0.3720     0.9190 O.co2 1 <1>  -0.9000 
  4 C       -1.9540     1.8930     0.2560 C.2   1 <1>   0.0560 
  5 N       -1.2050     2.9790     0.0630 N.2   1 <1>  -0.7070 
  6 C       -3.3100     2.2780     0.2450 C.2   1 <1>  -0.1810 
  7 N       -2.0590     4.0020    -0.0590 N.pl3 1 <1>   0.3000 
  8 C       -3.3360     3.6060     0.0540 C.2   1 <1>  -0.3320 
  9 C       -4.5590     1.4310     0.4130 C.3   1 <1>   0.0210 
 10 C       -4.5830     4.4610    -0.0230 C.3   1 <1>   0.0200 
 11 C       -5.8240     2.2170    -0.0120 C.3   1 <1>  -0.0800 
 12 C       -5.7850     3.6670     0.5220 C.3   1 <1>  -0.1600 
 13 C       -7.1190     1.5190     0.4460 C.3   1 <1>  -0.1600 
 14 C       -7.2940     0.1180    -0.1550 C.3   1 <1>  -0.2400 
 15 H       -1.7330     4.9600    -0.2170 H     1 <1>   0.2700 
 16 H       -4.6260     1.1330     1.4430 H     1 <1>   0.0800 
 17 H       -4.4600     0.5430    -0.1850 H     1 <1>   0.0800 
 18 H       -4.7590     4.7280    -1.0500 H     1 <1>   0.0800 
 19 H       -4.4540     5.3610     0.5520 H     1 <1>   0.0800 
 20 H       -5.8280     2.2660    -1.0880 H     1 <1>   0.0800 
 21 H       -6.6910     4.1850     0.2620 H     1 <1>   0.0800 
 22 H       -5.7160     3.6360     1.5950 H     1 <1>   0.0800 
 23 H       -7.9630     2.1190     0.1530 H     1 <1>   0.0800 
 24 H       -7.1270     1.4450     1.5200 H     1 <1>   0.0800 
 25 H       -7.2440     0.1600    -1.2290 H     1 <1>   0.0800 
 26 H       -8.2490    -0.2860     0.1290 H     1 <1>   0.0800 
 27 H       -6.5290    -0.5500     0.2010 H     1 <1>   0.0800 
@<TRIPOS>BOND
  1   1   2  ar  
  2   2   3  ar  
  3   2   4  1   
  4   4   5  2   
  5   4   6  1   
  6   5   7  1   
  7   6   8  2   
  8   6   9  1   
  9   7   8  1   
 10   7  15  1   
 11   8  10  1   
 12   9  11  1   
 13   9  16  1   
 14   9  17  1   
 15  10  12  1   
 16  10  18  1   
 17  10  19  1   
 18  11  12  1   
 19  11  13  1   
 20  11  20  1   
 21  12  21  1   
 22  12  22  1   
 23  13  14  1   
 24  13  23  1   
 25  13  24  1   
 26  14  25  1   
 27  14  26  1   
 28  14  27  1   
@<TRIPOS>SUBSTRUCTURE
  1 ****   6 GROUP 4 **** **** 0

# MOE 2024.06 (io_trps.svl 2023.06)
