@<TRIPOS>MOLECULE
2-(3-Ethoxy-propylamino)-6-methyl-10-oxo-10H-1,9,10a-triaza-anthracene-3-carboxy
64 67 1 0 0 
SMALL
USER_CHARGES


@<TRIPOS>ATOM
  1 O       -0.1140    -0.2370    -0.1840 O.2   1 <1>  -0.5700 
  2 C       -0.0430    -1.4440    -0.1920 C.2   1 <1>   0.8650 
  3 N       -1.2250    -2.1900    -0.0390 N.pl3 1 <1>  -0.5760 
  4 C        1.2190    -2.0960    -0.3460 C.ar  1 <1>   0.0860 
  5 C       -1.1710    -3.5430    -0.0150 C.cat 1 <1>   0.7390 
  6 C       -2.4470    -1.5660     0.0900 C.2   1 <1>   0.1910 
  7 C        1.2040    -3.4850    -0.3090 C.ar  1 <1>   0.6590 
  8 C        2.4450    -1.4700    -0.5280 C.ar  1 <1>  -0.1500 
  9 N        0.0240    -4.1380    -0.1420 N.pl3 1 <1>  -0.6530 
 10 C       -2.3460    -4.2910     0.1390 C.2   1 <1>  -0.1800 
 11 C       -3.6080    -2.2760     0.2420 C.2   1 <1>  -0.1380 
 12 N        2.2510    -4.2640    -0.4240 N.ar  1 <1>  -0.6200 
 13 C        3.5800    -2.2510    -0.6650 C.ar  1 <1>   0.0860 
 14 C       -3.5610    -3.6740     0.2680 C.2   1 <1>  -0.1500 
 15 C       -4.9580    -1.5900     0.3840 C.3   1 <1>  -0.1020 
 16 C        3.4190    -3.6560    -0.6060 C.ar  1 <1>   0.4100 
 17 C        4.8770    -1.6490    -0.8610 C.2   1 <1>   0.5440 
 18 N        4.5010    -4.4770    -0.7390 N.pl3 1 <1>  -0.8690 
 19 O        5.6540    -2.0970    -1.6830 O.2   1 <1>  -0.5700 
 20 N        5.2510    -0.5550    -0.1310 N.am  1 <1>  -0.7300 
 21 C        4.5610    -5.9510    -0.6600 C.3   1 <1>   0.2090 
 22 C        6.5510     0.1330    -0.2450 C.3   1 <1>   0.2200 
 23 C        5.9730    -6.3560    -0.2460 C.3   1 <1>  -0.1600 
 24 C        7.4240    -0.2590     0.9510 C.3   1 <1>  -0.1600 
 25 C        6.3080     1.6450    -0.2860 C.3   1 <1>  -0.1600 
 26 C        6.1140    -7.8750    -0.1670 C.3   1 <1>   0.1200 
 27 C        8.7520     0.5110     0.9430 C.3   1 <1>  -0.1600 
 28 C        7.6340     2.4180    -0.2970 C.3   1 <1>  -0.1600 
 29 O        7.4190    -8.1580     0.2090 O.3   1 <1>  -0.5600 
 30 C        8.5150     2.0270     0.8980 C.3   1 <1>  -0.1600 
 31 C        7.6990    -9.5130     0.3180 C.3   1 <1>   0.1200 
 32 C        9.1580    -9.6470     0.7360 C.3   1 <1>  -0.2400 
 33 H       -2.4800    -0.4850     0.0690 H     1 <1>   0.1500 
 34 H        2.5110    -0.3940    -0.5750 H     1 <1>   0.1500 
 35 H        0.1140    -5.1550    -0.1340 H     1 <1>   0.4500 
 36 H       -2.2850    -5.3640     0.1560 H     1 <1>   0.1500 
 37 H       -4.4720    -4.2410     0.3870 H     1 <1>   0.1500 
 38 H       -5.6140    -1.8950    -0.4120 H     1 <1>   0.0800 
 39 H       -4.8570    -0.5190     0.3490 H     1 <1>   0.0800 
 40 H       -5.4110    -1.8560     1.3230 H     1 <1>   0.0800 
 41 H        5.3630    -4.0370    -1.1090 H     1 <1>   0.4000 
 42 H        4.6950    -0.2510     0.6660 H     1 <1>   0.3700 
 43 H        4.3230    -6.3670    -1.6240 H     1 <1>   0.0800 
 44 H        3.8460    -6.3100     0.0620 H     1 <1>   0.0800 
 45 H        7.0460    -0.1660    -1.1550 H     1 <1>   0.0800 
 46 H        6.1940    -5.9350     0.7190 H     1 <1>   0.0800 
 47 H        6.6780    -5.9820    -0.9670 H     1 <1>   0.0800 
 48 H        7.6280    -1.3150     0.9100 H     1 <1>   0.0800 
 49 H        6.9020    -0.0460     1.8670 H     1 <1>   0.0800 
 50 H        5.7380     1.9440     0.5760 H     1 <1>   0.0800 
 51 H        5.7480     1.8910    -1.1710 H     1 <1>   0.0800 
 52 H        5.9270    -8.3270    -1.1270 H     1 <1>   0.0800 
 53 H        5.4460    -8.2840     0.5720 H     1 <1>   0.0800 
 54 H        9.3290     0.2150     0.0830 H     1 <1>   0.0800 
 55 H        9.3210     0.2600     1.8220 H     1 <1>   0.0800 
 56 H        7.4360     3.4760    -0.2690 H     1 <1>   0.0800 
 57 H        8.1620     2.2060    -1.2120 H     1 <1>   0.0800 
 58 H        9.4610     2.5370     0.8300 H     1 <1>   0.0800 
 59 H        8.0380     2.3410     1.8100 H     1 <1>   0.0800 
 60 H        7.5340    -9.9820    -0.6370 H     1 <1>   0.0800 
 61 H        7.0510    -9.9450     1.0620 H     1 <1>   0.0800 
 62 H        9.7950    -9.2000    -0.0060 H     1 <1>   0.0800 
 63 H        9.4170   -10.6850     0.8330 H     1 <1>   0.0800 
 64 H        9.3160    -9.1610     1.6820 H     1 <1>   0.0800 
@<TRIPOS>BOND
  1   1   2  2   
  2   2   3  1   
  3   2   4  1   
  4   3   5  ar  
  5   3   6  1   
  6   4   7  ar  
  7   4   8  ar  
  8   5   9  ar  
  9   5  10  1   
 10   6  11  2   
 11   6  33  1   
 12   7   9  1   
 13   7  12  ar  
 14   8  13  ar  
 15   8  34  1   
 16   9  35  1   
 17  10  14  2   
 18  10  36  1   
 19  11  14  1   
 20  11  15  1   
 21  12  16  ar  
 22  13  16  ar  
 23  13  17  1   
 24  14  37  1   
 25  15  38  1   
 26  15  39  1   
 27  15  40  1   
 28  16  18  1   
 29  17  19  2   
 30  17  20  am  
 31  18  21  1   
 32  18  41  1   
 33  20  22  1   
 34  20  42  1   
 35  21  23  1   
 36  21  43  1   
 37  21  44  1   
 38  22  24  1   
 39  22  25  1   
 40  22  45  1   
 41  23  26  1   
 42  23  46  1   
 43  23  47  1   
 44  24  27  1   
 45  24  48  1   
 46  24  49  1   
 47  25  28  1   
 48  25  50  1   
 49  25  51  1   
 50  26  29  1   
 51  26  52  1   
 52  26  53  1   
 53  27  30  1   
 54  27  54  1   
 55  27  55  1   
 56  28  30  1   
 57  28  56  1   
 58  28  57  1   
 59  29  31  1   
 60  30  58  1   
 61  30  59  1   
 62  31  32  1   
 63  31  60  1   
 64  31  61  1   
 65  32  62  1   
 66  32  63  1   
 67  32  64  1   
@<TRIPOS>SUBSTRUCTURE
  1 ****  13 GROUP 4 **** **** 0

# MOE 2024.06 (io_trps.svl 2023.06)
