@<TRIPOS>MOLECULE
8-Allylamino-7-(2-hydroxy-3-phenoxy-propyl)-1,3-dimethyl-3,7-dihydro-purine-2,6-
52 54 1 0 0 
SMALL
USER_CHARGES


@<TRIPOS>ATOM
  1 O        1.2020     0.4060    -0.9890 O.2   1 <1>  -0.5750 
  2 C        2.1820     1.0000    -0.5870 C.2   1 <1>   0.6860 
  3 N        2.1250     2.3730    -0.3700 N.am  1 <1>  -0.4260 
  4 N        3.3620     0.3080    -0.3550 N.am  1 <1>  -0.4410 
  5 C        3.2520     3.0870     0.0140 C.2   1 <1>   0.6990 
  6 C        0.8310     3.0880    -0.6060 C.3   1 <1>   0.0520 
  7 C        4.4720     1.0300     0.0370 C.2   1 <1>   0.4210 
  8 C        3.4370    -1.1690    -0.5630 C.3   1 <1>   0.0520 
  9 O        3.2060     4.2990     0.1510 O.2   1 <1>  -0.5750 
 10 C        4.4710     2.3660     0.2310 C.2   1 <1>   0.2710 
 11 N        5.7250     0.5640     0.2720 N.pl3 1 <1>  -0.7040 
 12 N        5.7860     2.7150     0.6080 N.pl3 1 <1>  -0.7670 
 13 C        6.5030     1.5890     0.5890 C.cat 1 <1>   1.0690 
 14 C        6.2090     4.0870     1.0420 C.3   1 <1>   0.3480 
 15 N        7.8010     1.5010     0.8330 N.pl3 1 <1>  -0.7180 
 16 C        7.1680     4.7670     0.0450 C.3   1 <1>   0.1930 
 17 C        8.6540     0.3030     0.9370 C.3   1 <1>   0.3000 
 18 O        8.3810     4.0790     0.0000 O.3   1 <1>  -0.6840 
 19 C        7.4540     6.2270     0.4220 C.3   1 <1>   0.1130 
 20 C        8.3390    -0.6450    -0.2050 C.2   1 <1>  -0.2950 
 21 O        8.5130     6.7010    -0.3840 O.3   1 <1>  -0.3680 
 22 C        7.7850    -1.8550    -0.0750 C.2   1 <1>  -0.3060 
 23 C        8.9790     7.9680    -0.2560 C.ar  1 <1>   0.0750 
 24 C       10.0310     8.3340    -1.0810 C.ar  1 <1>  -0.1570 
 25 C        8.4620     8.8970     0.6450 C.ar  1 <1>  -0.1570 
 26 C       10.5680     9.6070    -1.0130 C.ar  1 <1>  -0.1570 
 27 C        9.0000    10.1710     0.7110 C.ar  1 <1>  -0.1570 
 28 C       10.0520    10.5260    -0.1160 C.ar  1 <1>  -0.1570 
 29 H        0.0040     2.4740    -0.2920 H     1 <1>   0.0720 
 30 H        0.7250     3.3040    -1.6540 H     1 <1>   0.0720 
 31 H        0.7930     4.0100    -0.0520 H     1 <1>   0.0720 
 32 H        2.4600    -1.6140    -0.4630 H     1 <1>   0.0720 
 33 H        4.0840    -1.6200     0.1690 H     1 <1>   0.0720 
 34 H        3.8090    -1.3780    -1.5500 H     1 <1>   0.0720 
 35 H        6.1060    -0.3730     0.1280 H     1 <1>   0.4450 
 36 H        6.6880     4.0270     2.0040 H     1 <1>   0.0720 
 37 H        5.3430     4.7110     1.1650 H     1 <1>   0.0720 
 38 H        8.3110     2.3960     0.7660 H     1 <1>   0.4450 
 39 H        6.7350     4.7490    -0.9410 H     1 <1>   0.0720 
 40 H        8.4790    -0.1810     1.8840 H     1 <1>   0.0720 
 41 H        9.6920     0.5900     0.8920 H     1 <1>   0.0720 
 42 H        9.0380     4.6860    -0.4220 H     1 <1>   0.3940 
 43 H        7.7540     6.3050     1.4530 H     1 <1>   0.0720 
 44 H        6.5880     6.8410     0.2440 H     1 <1>   0.0720 
 45 H        8.6230    -0.2410    -1.1640 H     1 <1>   0.1430 
 46 H        7.5850    -2.5130    -0.9070 H     1 <1>   0.1430 
 47 H        7.5030    -2.3090     0.8620 H     1 <1>   0.1430 
 48 H       10.4290     7.6190    -1.7780 H     1 <1>   0.1430 
 49 H        7.6470     8.6560     1.2990 H     1 <1>   0.1430 
 50 H       11.3850     9.8840    -1.6570 H     1 <1>   0.1430 
 51 H        8.6010    10.8880     1.4060 H     1 <1>   0.1430 
 52 H       10.4680    11.5170    -0.0620 H     1 <1>   0.1430 
@<TRIPOS>BOND
  1   1   2  2   
  2   2   3  am  
  3   2   4  am  
  4   3   5  am  
  5   3   6  1   
  6   4   7  1   
  7   4   8  1   
  8   5   9  2   
  9   5  10  1   
 10   6  29  1   
 11   6  30  1   
 12   6  31  1   
 13   7  10  2   
 14   7  11  1   
 15   8  32  1   
 16   8  33  1   
 17   8  34  1   
 18  10  12  1   
 19  11  13  ar  
 20  11  35  1   
 21  12  13  ar  
 22  12  14  1   
 23  13  15  ar  
 24  14  16  1   
 25  14  36  1   
 26  14  37  1   
 27  15  17  1   
 28  15  38  1   
 29  16  18  1   
 30  16  19  1   
 31  16  39  1   
 32  17  20  1   
 33  17  40  1   
 34  17  41  1   
 35  18  42  1   
 36  19  21  1   
 37  19  43  1   
 38  19  44  1   
 39  20  22  2   
 40  20  45  1   
 41  21  23  1   
 42  22  46  1   
 43  22  47  1   
 44  23  24  ar  
 45  23  25  ar  
 46  24  26  ar  
 47  24  48  1   
 48  25  27  ar  
 49  25  49  1   
 50  26  28  ar  
 51  26  50  1   
 52  27  28  ar  
 53  27  51  1   
 54  28  52  1   
@<TRIPOS>SUBSTRUCTURE
  1 ****  14 GROUP 4 **** **** 0

# MOE 2024.06 (io_trps.svl 2023.06)
