@<TRIPOS>MOLECULE
1-(4-Methoxy-3-methyl-benzenesulfonyl)-piperidine-4-carboxylic acid allylamide
48 49 1 0 0 
SMALL
USER_CHARGES


@<TRIPOS>ATOM
  1 S        0.0560    -0.3080     1.9660 S.o2  1 <1>   1.4470 
  2 O        0.3530    -1.4320     2.8260 O.2   1 <1>  -0.6500 
  3 O       -0.2790     0.9690     2.5620 O.2   1 <1>  -0.6500 
  4 N        1.4270    -0.0380     1.0030 N.am  1 <1>  -0.8490 
  5 C       -1.2050    -0.7950     0.7570 C.ar  1 <1>  -0.0090 
  6 C        2.6460     0.0080     1.8140 C.3   1 <1>   0.1960 
  7 C        1.2860     1.1640     0.1740 C.3   1 <1>   0.1960 
  8 C       -2.4340    -0.1470     0.6920 C.ar  1 <1>  -0.1500 
  9 C       -0.9700    -1.8290    -0.1400 C.ar  1 <1>  -0.1500 
 10 C        3.8820     0.1050     0.9140 C.3   1 <1>  -0.1600 
 11 C        2.4700     1.2870    -0.7860 C.3   1 <1>  -0.1600 
 12 C       -3.3990    -0.5070    -0.2350 C.ar  1 <1>  -0.1430 
 13 C       -1.9200    -2.2030    -1.0730 C.ar  1 <1>  -0.1500 
 14 C        3.8040     1.3220    -0.0220 C.3   1 <1>  -0.0190 
 15 C       -3.1430    -1.5420    -1.1280 C.ar  1 <1>   0.0820 
 16 C       -4.7280     0.2330    -0.2680 C.3   1 <1>  -0.0970 
 17 C        5.0010     1.3760    -0.9710 C.2   1 <1>   0.5690 
 18 O       -4.1140    -1.8610    -2.0230 O.3   1 <1>  -0.3630 
 19 O        5.1410     0.5160    -1.8070 O.2   1 <1>  -0.5700 
 20 N        5.8830     2.3990    -0.8520 N.am  1 <1>  -0.7300 
 21 C       -3.9550    -2.9110    -2.9510 C.3   1 <1>   0.0400 
 22 C        7.0840     2.5640    -1.6810 C.3   1 <1>   0.2780 
 23 C        8.1480     3.1930    -0.8090 C.2   1 <1>  -0.2880 
 24 C        8.6790     4.4070    -0.9860 C.2   1 <1>  -0.3000 
 25 H        2.7240    -0.8910     2.4040 H     1 <1>   0.0800 
 26 H        2.6060     0.8490     2.4880 H     1 <1>   0.0800 
 27 H        1.2290     2.0400     0.8000 H     1 <1>   0.0800 
 28 H        0.3770     1.1040    -0.4020 H     1 <1>   0.0800 
 29 H       -2.6330     0.6540     1.3840 H     1 <1>   0.1500 
 30 H       -0.0250    -2.3450    -0.1040 H     1 <1>   0.1500 
 31 H        3.9550    -0.7980     0.3320 H     1 <1>   0.0800 
 32 H        4.7640     0.1720     1.5260 H     1 <1>   0.0800 
 33 H        2.3650     2.1820    -1.3730 H     1 <1>   0.0800 
 34 H        2.4570     0.4490    -1.4620 H     1 <1>   0.0800 
 35 H       -1.6880    -3.0080    -1.7440 H     1 <1>   0.1500 
 36 H        3.8160     2.2090     0.5840 H     1 <1>   0.0800 
 37 H       -4.7680     1.0020     0.4820 H     1 <1>   0.0800 
 38 H       -5.5330    -0.4590    -0.0940 H     1 <1>   0.0800 
 39 H       -4.8690     0.6860    -1.2330 H     1 <1>   0.0800 
 40 H        5.7590     3.1270    -0.1490 H     1 <1>   0.3700 
 41 H       -4.8530    -2.9740    -3.5390 H     1 <1>   0.0800 
 42 H       -3.8050    -3.8310    -2.4150 H     1 <1>   0.0800 
 43 H       -3.1160    -2.6910    -3.5860 H     1 <1>   0.0800 
 44 H        6.8540     3.2010    -2.5180 H     1 <1>   0.0800 
 45 H        7.4180     1.6090    -2.0540 H     1 <1>   0.0800 
 46 H        8.4470     2.5410    -0.0050 H     1 <1>   0.1500 
 47 H        9.4390     4.8290    -0.3500 H     1 <1>   0.1500 
 48 H        8.4040     5.0820    -1.7790 H     1 <1>   0.1500 
@<TRIPOS>BOND
  1   1   2  2   
  2   1   3  2   
  3   1   4  am  
  4   1   5  1   
  5   4   6  1   
  6   4   7  1   
  7   5   8  ar  
  8   5   9  ar  
  9   6  10  1   
 10   6  25  1   
 11   6  26  1   
 12   7  11  1   
 13   7  27  1   
 14   7  28  1   
 15   8  12  ar  
 16   8  29  1   
 17   9  13  ar  
 18   9  30  1   
 19  10  14  1   
 20  10  31  1   
 21  10  32  1   
 22  11  14  1   
 23  11  33  1   
 24  11  34  1   
 25  12  15  ar  
 26  12  16  1   
 27  13  15  ar  
 28  13  35  1   
 29  14  17  1   
 30  14  36  1   
 31  15  18  1   
 32  16  37  1   
 33  16  38  1   
 34  16  39  1   
 35  17  19  2   
 36  17  20  am  
 37  18  21  1   
 38  20  22  1   
 39  20  40  1   
 40  21  41  1   
 41  21  42  1   
 42  21  43  1   
 43  22  23  1   
 44  22  44  1   
 45  22  45  1   
 46  23  24  2   
 47  23  46  1   
 48  24  47  1   
 49  24  48  1   
@<TRIPOS>SUBSTRUCTURE
  1 ****   7 GROUP 4 **** **** 0

# MOE 2024.06 (io_trps.svl 2023.06)
