@<TRIPOS>MOLECULE
1-(4-Methoxy-3-methyl-benzenesulfonyl)-piperidine-4-carboxylic acid o-tolylamide
54 56 1 0 0 
SMALL
USER_CHARGES


@<TRIPOS>ATOM
  1 S        0.1470    -0.4410     2.0350 S.o2  1 <1>   1.4470 
  2 O        0.4930    -1.7420     2.5670 O.2   1 <1>  -0.6500 
  3 O       -0.1310     0.6450     2.9510 O.2   1 <1>  -0.6500 
  4 N        1.4540     0.0690     1.0800 N.am  1 <1>  -0.8490 
  5 C       -1.1970    -0.6210     0.8320 C.ar  1 <1>  -0.0090 
  6 C        2.7230    -0.0800     1.7950 C.3   1 <1>   0.1960 
  7 C        1.2660     1.4360     0.5820 C.3   1 <1>   0.1960 
  8 C       -2.4200     0.0140     1.0130 C.ar  1 <1>  -0.1500 
  9 C       -1.0330    -1.3990    -0.3080 C.ar  1 <1>  -0.1500 
 10 C        3.8980     0.2510     0.8710 C.3   1 <1>  -0.1600 
 11 C        2.3880     1.8030    -0.3900 C.3   1 <1>  -0.1600 
 12 C       -3.4490    -0.1090     0.0920 C.ar  1 <1>  -0.1430 
 13 C       -2.0480    -1.5350    -1.2380 C.ar  1 <1>  -0.1500 
 14 C        3.7680     1.6620     0.2760 C.3   1 <1>  -0.0190 
 15 C       -3.2650    -0.8880    -1.0450 C.ar  1 <1>   0.0820 
 16 C       -4.7700     0.6080     0.3340 C.3   1 <1>  -0.0970 
 17 C        4.9130     1.9640    -0.6910 C.2   1 <1>   0.5690 
 18 O       -4.2970    -0.9810    -1.9230 O.3   1 <1>  -0.3630 
 19 O        4.9070     1.4490    -1.7820 O.2   1 <1>  -0.5700 
 20 N        5.9050     2.7980    -0.2500 N.am  1 <1>  -0.5470 
 21 C       -4.2110    -1.7640    -3.0930 C.3   1 <1>   0.0400 
 22 C        7.0730     3.2740    -0.8710 C.ar  1 <1>   0.1170 
 23 C        8.1330     3.7270    -0.0810 C.ar  1 <1>  -0.1430 
 24 C        7.2020     3.3290    -2.2560 C.ar  1 <1>  -0.1500 
 25 C        9.2840     4.2150    -0.6810 C.ar  1 <1>  -0.1500 
 26 C        8.0620     3.6940     1.4420 C.3   1 <1>  -0.0970 
 27 C        8.3530     3.8140    -2.8470 C.ar  1 <1>  -0.1500 
 28 C        9.3970     4.2590    -2.0590 C.ar  1 <1>  -0.1500 
 29 H        2.8320    -1.0970     2.1350 H     1 <1>   0.0800 
 30 H        2.7320     0.5650     2.6600 H     1 <1>   0.0800 
 31 H        1.2540     2.1310     1.4070 H     1 <1>   0.0800 
 32 H        0.3230     1.5100     0.0670 H     1 <1>   0.0800 
 33 H       -2.5640     0.6170     1.8940 H     1 <1>   0.1500 
 34 H       -0.0940    -1.9020    -0.4650 H     1 <1>   0.1500 
 35 H        3.9280    -0.4760     0.0770 H     1 <1>   0.0800 
 36 H        4.8180     0.1690     1.4220 H     1 <1>   0.0800 
 37 H        2.2510     2.8130    -0.7320 H     1 <1>   0.0800 
 38 H        2.3260     1.1560    -1.2490 H     1 <1>   0.0800 
 39 H       -1.8700    -2.1460    -2.1020 H     1 <1>   0.1500 
 40 H        3.8130     2.3710     1.0830 H     1 <1>   0.0800 
 41 H       -4.9690     1.2860    -0.4760 H     1 <1>   0.0800 
 42 H       -4.7510     1.1650     1.2530 H     1 <1>   0.0800 
 43 H       -5.5680    -0.1110     0.3850 H     1 <1>   0.0800 
 44 H        5.8200     3.0930     0.7180 H     1 <1>   0.3700 
 45 H       -5.1460    -1.6830    -3.6170 H     1 <1>   0.0800 
 46 H       -4.0350    -2.7880    -2.8150 H     1 <1>   0.0800 
 47 H       -3.4130    -1.3860    -3.7080 H     1 <1>   0.0800 
 48 H        6.4000     2.9940    -2.8860 H     1 <1>   0.1500 
 49 H       10.1060     4.5650    -0.0820 H     1 <1>   0.1500 
 50 H        7.8450     2.6970     1.7800 H     1 <1>   0.0800 
 51 H        7.2990     4.3660     1.7900 H     1 <1>   0.0800 
 52 H        8.9990     3.9950     1.8760 H     1 <1>   0.0800 
 53 H        8.4340     3.8460    -3.9200 H     1 <1>   0.1500 
 54 H       10.2940     4.6380    -2.5160 H     1 <1>   0.1500 
@<TRIPOS>BOND
  1   1   2  2   
  2   1   3  2   
  3   1   4  am  
  4   1   5  1   
  5   4   6  1   
  6   4   7  1   
  7   5   8  ar  
  8   5   9  ar  
  9   6  10  1   
 10   6  29  1   
 11   6  30  1   
 12   7  11  1   
 13   7  31  1   
 14   7  32  1   
 15   8  12  ar  
 16   8  33  1   
 17   9  13  ar  
 18   9  34  1   
 19  10  14  1   
 20  10  35  1   
 21  10  36  1   
 22  11  14  1   
 23  11  37  1   
 24  11  38  1   
 25  12  15  ar  
 26  12  16  1   
 27  13  15  ar  
 28  13  39  1   
 29  14  17  1   
 30  14  40  1   
 31  15  18  1   
 32  16  41  1   
 33  16  42  1   
 34  16  43  1   
 35  17  19  2   
 36  17  20  am  
 37  18  21  1   
 38  20  22  1   
 39  20  44  1   
 40  21  45  1   
 41  21  46  1   
 42  21  47  1   
 43  22  23  ar  
 44  22  24  ar  
 45  23  25  ar  
 46  23  26  1   
 47  24  27  ar  
 48  24  48  1   
 49  25  28  ar  
 50  25  49  1   
 51  26  50  1   
 52  26  51  1   
 53  26  52  1   
 54  27  28  ar  
 55  27  53  1   
 56  28  54  1   
@<TRIPOS>SUBSTRUCTURE
  1 ****  11 GROUP 4 **** **** 0

# MOE 2024.06 (io_trps.svl 2023.06)
