@<TRIPOS>MOLECULE
2-[(4-Ethoxy-benzenesulfonyl)-(4-fluoro-phenyl)-amino]-N-(tetrahydro-furan-2-ylm
55 57 1 0 0 
SMALL
USER_CHARGES


@<TRIPOS>ATOM
  1 S        0.3390    -0.7010    -1.0160 S.o2  1 <1>   1.4470 
  2 O        1.2610    -0.7170     0.0980 O.2   1 <1>  -0.6500 
  3 O        0.6480    -1.4530    -2.2090 O.2   1 <1>  -0.6500 
  4 N        0.2600     0.9540    -1.5180 N.am  1 <1>  -0.6930 
  5 C       -1.3640    -1.0350    -0.4920 C.ar  1 <1>  -0.0090 
  6 C       -0.3210     1.9360    -0.7240 C.ar  1 <1>   0.1990 
  7 C        1.2540     1.3860    -2.5510 C.3   1 <1>   0.2570 
  8 C       -1.7640    -0.8340     0.8250 C.ar  1 <1>  -0.1500 
  9 C       -2.3240    -1.4680    -1.4010 C.ar  1 <1>  -0.1500 
 10 C       -1.3850     2.6800    -1.2300 C.ar  1 <1>  -0.1500 
 11 C        0.1330     2.1950     0.5690 C.ar  1 <1>  -0.1500 
 12 C        2.6300     1.7960    -2.0080 C.2   1 <1>   0.5690 
 13 C       -3.0710    -1.0580     1.2190 C.ar  1 <1>  -0.1500 
 14 C       -3.6340    -1.6960    -1.0160 C.ar  1 <1>  -0.1500 
 15 C       -1.9900     3.6630    -0.4650 C.ar  1 <1>  -0.1500 
 16 C       -0.4620     3.1740     1.3460 C.ar  1 <1>  -0.1500 
 17 O        3.2340     2.6580    -2.6000 O.2   1 <1>  -0.5700 
 18 N        3.1520     1.2080    -0.8960 N.am  1 <1>  -0.7300 
 19 C       -4.0150    -1.4900     0.3050 C.ar  1 <1>   0.0830 
 20 C       -1.5150     3.8910     0.8120 C.ar  1 <1>   0.1900 
 21 C        4.4870     1.5080    -0.3070 C.3   1 <1>   0.1400 
 22 O       -5.2720    -1.6850     0.7700 O.3   1 <1>  -0.3630 
 23 F       -2.0800     4.8180     1.5410 F     1 <1>  -0.1900 
 24 C        4.5890     2.9520     0.2110 C.3   1 <1>   0.2000 
 25 C       -6.3070    -2.1410    -0.0690 C.3   1 <1>   0.1200 
 26 O        5.7570     3.0940     0.9500 O.3   1 <1>  -0.5600 
 27 C        3.4910     3.3730     1.1800 C.3   1 <1>  -0.1600 
 28 C       -7.5770    -2.2590     0.7690 C.3   1 <1>  -0.2400 
 29 C        5.6650     4.2210     1.7590 C.3   1 <1>   0.1200 
 30 C        4.1790     4.4040     2.0610 C.3   1 <1>  -0.1600 
 31 H        0.8510     2.2310    -3.0800 H     1 <1>   0.0800 
 32 H        1.3990     0.6040    -3.2750 H     1 <1>   0.0800 
 33 H       -1.0450    -0.4970     1.5540 H     1 <1>   0.1500 
 34 H       -2.0400    -1.6300    -2.4280 H     1 <1>   0.1500 
 35 H       -1.7380     2.4820    -2.2250 H     1 <1>   0.1500 
 36 H        0.9570     1.6340     0.9690 H     1 <1>   0.1500 
 37 H       -3.3690    -0.8990     2.2410 H     1 <1>   0.1500 
 38 H       -4.3380    -2.0320    -1.7540 H     1 <1>   0.1500 
 39 H       -2.8130     4.2420    -0.8450 H     1 <1>   0.1500 
 40 H       -0.1190     3.3820     2.3440 H     1 <1>   0.1500 
 41 H        2.6160     0.4760    -0.4060 H     1 <1>   0.3700 
 42 H        5.2430     1.3550    -1.0580 H     1 <1>   0.0800 
 43 H        4.6670     0.8290     0.5080 H     1 <1>   0.0800 
 44 H        4.6460     3.6390    -0.6170 H     1 <1>   0.0800 
 45 H       -6.0250    -3.1000    -0.4680 H     1 <1>   0.0800 
 46 H       -6.4420    -1.4290    -0.8640 H     1 <1>   0.0800 
 47 H        3.1820     2.5280     1.7690 H     1 <1>   0.0800 
 48 H        2.6430     3.7770     0.6550 H     1 <1>   0.0800 
 49 H       -7.4280    -2.9610     1.5700 H     1 <1>   0.0800 
 50 H       -8.3890    -2.6060     0.1550 H     1 <1>   0.0800 
 51 H       -7.8410    -1.3000     1.1770 H     1 <1>   0.0800 
 52 H        6.0580     5.0600     1.2090 H     1 <1>   0.0800 
 53 H        6.2480     4.0560     2.6490 H     1 <1>   0.0800 
 54 H        3.9740     4.2300     3.1030 H     1 <1>   0.0800 
 55 H        3.8760     5.4040     1.8050 H     1 <1>   0.0800 
@<TRIPOS>BOND
  1   1   2  2   
  2   1   3  2   
  3   1   4  am  
  4   1   5  1   
  5   4   6  1   
  6   4   7  1   
  7   5   8  ar  
  8   5   9  ar  
  9   6  10  ar  
 10   6  11  ar  
 11   7  12  1   
 12   7  31  1   
 13   7  32  1   
 14   8  13  ar  
 15   8  33  1   
 16   9  14  ar  
 17   9  34  1   
 18  10  15  ar  
 19  10  35  1   
 20  11  16  ar  
 21  11  36  1   
 22  12  17  2   
 23  12  18  am  
 24  13  19  ar  
 25  13  37  1   
 26  14  19  ar  
 27  14  38  1   
 28  15  20  ar  
 29  15  39  1   
 30  16  20  ar  
 31  16  40  1   
 32  18  21  1   
 33  18  41  1   
 34  19  22  1   
 35  20  23  1   
 36  21  24  1   
 37  21  42  1   
 38  21  43  1   
 39  22  25  1   
 40  24  26  1   
 41  24  27  1   
 42  24  44  1   
 43  25  28  1   
 44  25  45  1   
 45  25  46  1   
 46  26  29  1   
 47  27  30  1   
 48  27  47  1   
 49  27  48  1   
 50  28  49  1   
 51  28  50  1   
 52  28  51  1   
 53  29  30  1   
 54  29  52  1   
 55  29  53  1   
 56  30  54  1   
 57  30  55  1   
@<TRIPOS>SUBSTRUCTURE
  1 ****   6 GROUP 4 **** **** 0

# MOE 2024.06 (io_trps.svl 2023.06)
