@<TRIPOS>MOLECULE
5-Ethoxy-2,4-dimethyl-N-pyridin-2-ylmethyl-benzenesulfonamide
42 43 1 0 0 
SMALL
USER_CHARGES


@<TRIPOS>ATOM
  1 S       -0.3460    -1.6320    -1.5460 S.o2  1 <1>   1.4470 
  2 O       -0.2280    -3.0440    -1.2540 O.2   1 <1>  -0.6500 
  3 O       -0.9210    -1.2260    -2.8070 O.2   1 <1>  -0.6500 
  4 N       -1.3950    -1.0230    -0.3980 N.am  1 <1>  -0.9140 
  5 C        1.2250    -0.7760    -1.2020 C.ar  1 <1>  -0.0090 
  6 C       -2.6050    -1.8200    -0.3100 C.3   1 <1>   0.3390 
  7 C        1.4560     0.5700    -1.5000 C.ar  1 <1>  -0.1440 
  8 C        2.2500    -1.4900    -0.5910 C.ar  1 <1>  -0.1500 
  9 C       -3.7220    -0.9700     0.2860 C.ar  1 <1>   0.1660 
 10 C        2.6790     1.1520    -1.1970 C.ar  1 <1>  -0.1500 
 11 C        0.3990     1.4460    -2.1630 C.3   1 <1>  -0.0960 
 12 C        3.4760    -0.9090    -0.2860 C.ar  1 <1>   0.0830 
 13 N       -4.0320     0.1440    -0.3720 N.ar  1 <1>  -0.6200 
 14 C       -4.3480    -1.3770     1.4550 C.ar  1 <1>  -0.1500 
 15 C        3.6900     0.4270    -0.5940 C.ar  1 <1>  -0.1430 
 16 O        4.4900    -1.5910     0.3080 O.3   1 <1>  -0.3620 
 17 C       -5.0040     0.8700     0.1570 C.ar  1 <1>   0.1600 
 18 C       -5.3590    -0.6090     1.9930 C.ar  1 <1>  -0.1500 
 19 C        5.0210     1.0930    -0.2750 C.3   1 <1>  -0.0970 
 20 C        4.3690    -2.9490     0.6610 C.3   1 <1>   0.1200 
 21 C       -5.6880     0.5450     1.3160 C.ar  1 <1>  -0.1500 
 22 C        5.6820    -3.3880     1.3010 C.3   1 <1>  -0.2400 
 23 H       -1.7370    -0.1430    -0.7890 H     1 <1>   0.4200 
 24 H       -2.4200    -2.6950     0.2890 H     1 <1>   0.0800 
 25 H       -2.9180    -2.1360    -1.2920 H     1 <1>   0.0800 
 26 H        2.0700    -2.5210    -0.3550 H     1 <1>   0.1500 
 27 H        2.8490     2.1880    -1.4340 H     1 <1>   0.1500 
 28 H        0.7220     2.4700    -2.2180 H     1 <1>   0.0800 
 29 H        0.2110     1.1050    -3.1660 H     1 <1>   0.0800 
 30 H       -0.5190     1.4230    -1.6060 H     1 <1>   0.0800 
 31 H       -4.0490    -2.2860     1.9460 H     1 <1>   0.1500 
 32 H       -5.2720     1.7740    -0.3620 H     1 <1>   0.1500 
 33 H       -5.8650    -0.8950     2.8980 H     1 <1>   0.1500 
 34 H        5.0250     2.1240    -0.5770 H     1 <1>   0.0800 
 35 H        5.8150     0.5810    -0.7880 H     1 <1>   0.0800 
 36 H        5.2070     1.0430     0.7830 H     1 <1>   0.0800 
 37 H        4.1720    -3.5180    -0.2310 H     1 <1>   0.0800 
 38 H        3.5540    -3.0490     1.3580 H     1 <1>   0.0800 
 39 H       -6.4680     1.1890     1.6810 H     1 <1>   0.1500 
 40 H        6.4900    -3.2680     0.6030 H     1 <1>   0.0800 
 41 H        5.6220    -4.4230     1.5830 H     1 <1>   0.0800 
 42 H        5.8770    -2.8020     2.1820 H     1 <1>   0.0800 
@<TRIPOS>BOND
  1   1   2  2   
  2   1   3  2   
  3   1   4  am  
  4   1   5  1   
  5   4   6  1   
  6   4  23  1   
  7   5   7  ar  
  8   5   8  ar  
  9   6   9  1   
 10   6  24  1   
 11   6  25  1   
 12   7  10  ar  
 13   7  11  1   
 14   8  12  ar  
 15   8  26  1   
 16   9  13  ar  
 17   9  14  ar  
 18  10  15  ar  
 19  10  27  1   
 20  11  28  1   
 21  11  29  1   
 22  11  30  1   
 23  12  15  ar  
 24  12  16  1   
 25  13  17  ar  
 26  14  18  ar  
 27  14  31  1   
 28  15  19  1   
 29  16  20  1   
 30  17  21  ar  
 31  17  32  1   
 32  18  21  ar  
 33  18  33  1   
 34  19  34  1   
 35  19  35  1   
 36  19  36  1   
 37  20  22  1   
 38  20  37  1   
 39  20  38  1   
 40  21  39  1   
 41  22  40  1   
 42  22  41  1   
 43  22  42  1   
@<TRIPOS>SUBSTRUCTURE
  1 ****   5 GROUP 4 **** **** 0

# MOE 2024.06 (io_trps.svl 2023.06)
