@<TRIPOS>MOLECULE
N-{1-[3-(4-tert-Butyl-phenyl)-[1,2,4]oxadiazol-5-yl]-ethyl}-4-methyl-benzenesulf
53 55 1 0 0 
SMALL
USER_CHARGES


@<TRIPOS>ATOM
  1 S       -0.1300    -1.3570    -0.3500 S.o2  1 <1>   1.4470 
  2 O        1.1490    -1.9240    -0.7040 O.2   1 <1>  -0.6500 
  3 O       -1.3270    -1.8980    -0.9480 O.2   1 <1>  -0.6500 
  4 N       -0.2080    -1.6190     1.3050 N.am  1 <1>  -0.9140 
  5 C       -0.0740     0.4480    -0.5180 C.ar  1 <1>  -0.0090 
  6 C       -1.5320    -1.6790     1.9260 C.3   1 <1>   0.4560 
  7 C        0.8850     1.1990     0.1510 C.ar  1 <1>  -0.1500 
  8 C       -0.9910     1.1270    -1.3120 C.ar  1 <1>  -0.1500 
  9 C       -2.3720    -2.9050     1.5260 C.2   1 <1>   0.2980 
 10 C       -2.2670    -0.3430     1.7680 C.3   1 <1>  -0.2400 
 11 C        0.9250     2.5780     0.0380 C.ar  1 <1>  -0.1500 
 12 C       -0.9560     2.5060    -1.4300 C.ar  1 <1>  -0.1500 
 13 O       -1.7690    -4.0650     1.5000 O.3   1 <1>  -0.0190 
 14 N       -3.6090    -2.9320     1.2350 N.2   1 <1>  -0.5650 
 15 C        0.0030     3.2390    -0.7540 C.ar  1 <1>  -0.1430 
 16 N       -2.6960    -4.8980     1.1500 N.2   1 <1>  -0.4100 
 17 C       -3.7840    -4.2320     0.9780 C.2   1 <1>   0.4620 
 18 C        0.0420     4.7520    -0.8810 C.3   1 <1>  -0.0970 
 19 C       -5.0620    -4.7860     0.5630 C.ar  1 <1>   0.0540 
 20 C       -5.2200    -6.1500     0.3230 C.ar  1 <1>  -0.1500 
 21 C       -6.1890    -3.9860     0.3820 C.ar  1 <1>  -0.1500 
 22 C       -6.4320    -6.6860    -0.0720 C.ar  1 <1>  -0.1500 
 23 C       -7.4020    -4.5200    -0.0130 C.ar  1 <1>  -0.1500 
 24 C       -7.5530    -5.8810    -0.2500 C.ar  1 <1>  -0.1430 
 25 C       -8.9270    -6.4300    -0.6920 C.3   1 <1>   0.1440 
 26 C       -9.3400    -5.7700    -2.0160 C.3   1 <1>  -0.2400 
 27 C       -8.9280    -7.9520    -0.9120 C.3   1 <1>  -0.2400 
 28 C       -9.9760    -6.1160     0.3850 C.3   1 <1>  -0.2400 
 29 H        0.2090    -2.5440     1.3990 H     1 <1>   0.4200 
 30 H       -1.3550    -1.7960     2.9820 H     1 <1>   0.0800 
 31 H        1.6100     0.6970     0.7690 H     1 <1>   0.1500 
 32 H       -1.7430     0.5710    -1.8470 H     1 <1>   0.1500 
 33 H       -2.6180    -0.2120     0.7610 H     1 <1>   0.0800 
 34 H       -1.6280     0.4760     2.0450 H     1 <1>   0.0800 
 35 H       -3.1270    -0.3340     2.4130 H     1 <1>   0.0800 
 36 H        1.6780     3.1340     0.5700 H     1 <1>   0.1500 
 37 H       -1.6810     3.0050    -2.0510 H     1 <1>   0.1500 
 38 H        1.0460     5.1160    -0.7490 H     1 <1>   0.0800 
 39 H       -0.5890     5.1960    -0.1320 H     1 <1>   0.0800 
 40 H       -0.3030     5.0570    -1.8520 H     1 <1>   0.0800 
 41 H       -4.3760    -6.8060     0.4480 H     1 <1>   0.1500 
 42 H       -6.1160    -2.9270     0.5520 H     1 <1>   0.1500 
 43 H       -6.4730    -7.7460    -0.2370 H     1 <1>   0.1500 
 44 H       -8.2360    -3.8530    -0.1350 H     1 <1>   0.1500 
 45 H       -8.5920    -5.9540    -2.7660 H     1 <1>   0.0800 
 46 H       -9.4480    -4.7070    -1.9030 H     1 <1>   0.0800 
 47 H      -10.2780    -6.1650    -2.3620 H     1 <1>   0.0800 
 48 H       -8.2260    -8.2230    -1.6800 H     1 <1>   0.0800 
 49 H       -9.9020    -8.2890    -1.2180 H     1 <1>   0.0800 
 50 H       -8.6690    -8.4650    -0.0030 H     1 <1>   0.0800 
 51 H      -10.0900    -5.0570     0.5190 H     1 <1>   0.0800 
 52 H       -9.6770    -6.5450     1.3250 H     1 <1>   0.0800 
 53 H      -10.9340    -6.5220     0.1120 H     1 <1>   0.0800 
@<TRIPOS>BOND
  1   1   2  2   
  2   1   3  2   
  3   1   4  am  
  4   1   5  1   
  5   4   6  1   
  6   4  29  1   
  7   5   7  ar  
  8   5   8  ar  
  9   6   9  1   
 10   6  10  1   
 11   6  30  1   
 12   7  11  ar  
 13   7  31  1   
 14   8  12  ar  
 15   8  32  1   
 16   9  13  1   
 17   9  14  2   
 18  10  33  1   
 19  10  34  1   
 20  10  35  1   
 21  11  15  ar  
 22  11  36  1   
 23  12  15  ar  
 24  12  37  1   
 25  13  16  1   
 26  14  17  1   
 27  15  18  1   
 28  16  17  2   
 29  17  19  1   
 30  18  38  1   
 31  18  39  1   
 32  18  40  1   
 33  19  20  ar  
 34  19  21  ar  
 35  20  22  ar  
 36  20  41  1   
 37  21  23  ar  
 38  21  42  1   
 39  22  24  ar  
 40  22  43  1   
 41  23  24  ar  
 42  23  44  1   
 43  24  25  1   
 44  25  26  1   
 45  25  27  1   
 46  25  28  1   
 47  26  45  1   
 48  26  46  1   
 49  26  47  1   
 50  27  48  1   
 51  27  49  1   
 52  27  50  1   
 53  28  51  1   
 54  28  52  1   
 55  28  53  1   
@<TRIPOS>SUBSTRUCTURE
  1 ****  14 GROUP 4 **** **** 0

# MOE 2024.06 (io_trps.svl 2023.06)
