@<TRIPOS>MOLECULE
2-[8-(3-Chloro-phenyl)-1-methyl-2,4-dioxo-1,4,5,6,7,8-hexahydro-2H-1,3,4b,8,9-pe
45 48 1 0 0 
SMALL
USER_CHARGES


@<TRIPOS>ATOM
  1 CL      -3.3000    -2.3910    -2.5580 Cl    1 <1>  -0.1850 
  2 C       -3.6610    -1.6220    -1.0370 C.ar  1 <1>   0.1690 
  3 C       -4.4010    -0.4570    -1.0370 C.ar  1 <1>  -0.1590 
  4 C       -3.2100    -2.1910     0.1390 C.ar  1 <1>  -0.1590 
  5 C       -4.7120     0.1550     0.1690 C.ar  1 <1>   0.3040 
  6 C       -3.5080    -1.5770     1.3440 C.ar  1 <1>  -0.1590 
  7 N       -5.4940     1.3130     0.1900 N.pl3 1 <1>  -0.5810 
  8 C       -4.2550    -0.4110     1.3550 C.ar  1 <1>  -0.1590 
  9 C       -6.8050     1.3200    -0.1270 C.cat 1 <1>   1.0680 
 10 C       -4.8050     2.6050     0.4710 C.3   1 <1>   0.1590 
 11 N       -7.5560     0.2640    -0.4360 N.pl3 1 <1>  -0.7050 
 12 N       -7.5350     2.4250    -0.1760 N.pl3 1 <1>  -0.7680 
 13 C       -5.7940     3.6440     1.0220 C.3   1 <1>  -0.1690 
 14 C       -8.8170     0.7120    -0.6930 C.2   1 <1>   0.4190 
 15 C       -8.8380     2.0540    -0.5400 C.2   1 <1>   0.2690 
 16 C       -7.0470     3.7780     0.1490 C.3   1 <1>   0.3470 
 17 N       -9.9240    -0.0290    -1.0600 N.am  1 <1>  -0.4430 
 18 C      -10.0630     2.7580    -0.7590 C.2   1 <1>   0.6980 
 19 C      -11.1340     0.6370    -1.2010 C.2   1 <1>   0.6850 
 20 C       -9.8450    -1.5110    -1.2170 C.3   1 <1>   0.0510 
 21 O      -10.1120     3.9770    -0.7200 O.2   1 <1>  -0.5750 
 22 N      -11.1970     2.0130    -1.0360 N.am  1 <1>  -0.4270 
 23 O      -12.1430     0.0170    -1.4690 O.2   1 <1>  -0.5750 
 24 C      -12.5260     2.6130    -0.6880 C.3   1 <1>   0.1930 
 25 C      -12.8380     2.4220     0.7990 C.2   1 <1>   0.5630 
 26 O      -11.9390     2.2070     1.5760 O.2   1 <1>  -0.5750 
 27 N      -14.1080     2.4880     1.2470 N.am  1 <1>  -0.8040 
 28 H       -4.7230    -0.0380    -1.9720 H     1 <1>   0.1410 
 29 H       -2.6320    -3.0990     0.1090 H     1 <1>   0.1410 
 30 H       -3.1560    -2.0090     2.2670 H     1 <1>   0.1410 
 31 H       -4.4850     0.0610     2.2950 H     1 <1>   0.1410 
 32 H       -4.3640     2.9690    -0.4420 H     1 <1>   0.0710 
 33 H       -4.0130     2.4500     1.1850 H     1 <1>   0.0710 
 34 H       -7.2290    -0.6980    -0.4410 H     1 <1>   0.4440 
 35 H       -5.3080     4.6010     1.0930 H     1 <1>   0.0710 
 36 H       -6.0860     3.3640     2.0200 H     1 <1>   0.0710 
 37 H       -7.8080     4.3320     0.6760 H     1 <1>   0.0710 
 38 H       -6.8140     4.3000    -0.7640 H     1 <1>   0.0710 
 39 H       -9.9360    -1.9820    -0.2540 H     1 <1>   0.0710 
 40 H       -8.9110    -1.7920    -1.6690 H     1 <1>   0.0710 
 41 H      -10.6420    -1.8660    -1.8490 H     1 <1>   0.0710 
 42 H      -13.3000     2.1550    -1.2760 H     1 <1>   0.0710 
 43 H      -12.5270     3.6650    -0.9110 H     1 <1>   0.0710 
 44 H      -14.2910     2.3440     2.2420 H     1 <1>   0.3630 
 45 H      -14.9320     2.6290     0.6600 H     1 <1>   0.3630 
@<TRIPOS>BOND
  1   1   2  1   
  2   2   3  ar  
  3   2   4  ar  
  4   3   5  ar  
  5   3  28  1   
  6   4   6  ar  
  7   4  29  1   
  8   5   7  1   
  9   5   8  ar  
 10   6   8  ar  
 11   6  30  1   
 12   7   9  ar  
 13   7  10  1   
 14   8  31  1   
 15   9  11  ar  
 16   9  12  ar  
 17  10  13  1   
 18  10  32  1   
 19  10  33  1   
 20  11  14  1   
 21  11  34  1   
 22  12  15  1   
 23  12  16  1   
 24  13  16  1   
 25  13  35  1   
 26  13  36  1   
 27  14  15  2   
 28  14  17  1   
 29  15  18  1   
 30  16  37  1   
 31  16  38  1   
 32  17  19  am  
 33  17  20  1   
 34  18  21  2   
 35  18  22  am  
 36  19  22  am  
 37  19  23  2   
 38  20  39  1   
 39  20  40  1   
 40  20  41  1   
 41  22  24  1   
 42  24  25  1   
 43  24  42  1   
 44  24  43  1   
 45  25  26  2   
 46  25  27  am  
 47  27  44  1   
 48  27  45  1   
@<TRIPOS>SUBSTRUCTURE
  1 ****  11 GROUP 4 **** **** 0

# MOE 2024.06 (io_trps.svl 2023.06)
