@<TRIPOS>MOLECULE
8-(2,6-Dimethyl-morpholin-4-ylmethyl)-1,3-dimethyl-7-(1-methyl-2-oxo-propyl)-3,7
55 57 1 0 0 
SMALL
USER_CHARGES


@<TRIPOS>ATOM
  1 O        0.9770     0.5200    -0.1660 O.2   1 <1>  -0.5700 
  2 C        2.0400     1.1040    -0.2100 C.2   1 <1>   0.6900 
  3 N        2.1050     2.4570     0.1050 N.am  1 <1>  -0.4200 
  4 N        3.1900     0.4200    -0.5700 N.am  1 <1>  -0.4360 
  5 C        3.3150     3.1380     0.1150 C.2   1 <1>   0.7030 
  6 C        0.8450     3.1680     0.4920 C.3   1 <1>   0.0600 
  7 C        4.3900     1.1050    -0.5440 C.2   1 <1>   0.4260 
  8 C        3.1460    -1.0310    -0.9200 C.3   1 <1>   0.0600 
  9 O        3.3470     4.3250     0.3950 O.2   1 <1>  -0.5700 
 10 C        4.5130     2.4170    -0.2250 C.2   1 <1>   0.2770 
 11 N        5.6260     0.6150    -0.7970 N.pl3 1 <1>  -0.7000 
 12 N        5.8850     2.7180    -0.3000 N.pl3 1 <1>  -0.7640 
 13 C        6.5090     1.5890    -0.6230 C.cat 1 <1>   0.6560 
 14 C        6.4980     4.0300     0.1020 C.3   1 <1>   0.4950 
 15 C        8.0180     1.3280    -0.7750 C.3   1 <1>   0.2540 
 16 C        6.1200     4.4200     1.5500 C.2   1 <1>   0.4480 
 17 C        6.1930     5.0640    -0.9900 C.3   1 <1>  -0.2400 
 18 N        8.3190    -0.1260    -0.7370 N.3   1 <1>  -0.8100 
 19 O        6.0220     3.5780     2.3940 O.2   1 <1>  -0.5700 
 20 C        5.9040     5.8790     1.9080 C.3   1 <1>  -0.1790 
 21 C        9.5600    -0.5030    -1.4420 C.3   1 <1>   0.1100 
 22 C        8.3420    -0.6830     0.6430 C.3   1 <1>   0.1100 
 23 C        9.7110    -2.0450    -1.5270 C.3   1 <1>   0.2000 
 24 C        9.0060    -2.0840     0.7380 C.3   1 <1>   0.2000 
 25 O        9.0160    -2.7130    -0.5070 O.3   1 <1>  -0.5600 
 26 C       11.1710    -2.5020    -1.4940 C.3   1 <1>  -0.2400 
 27 C        8.2710    -3.0120     1.7000 C.3   1 <1>  -0.2400 
 28 H        0.0140     2.7950    -0.0810 H     1 <1>   0.0800 
 29 H        0.9270     4.2260     0.3100 H     1 <1>   0.0800 
 30 H        0.6470     3.0060     1.5370 H     1 <1>   0.0800 
 31 H        2.1540    -1.3170    -1.2280 H     1 <1>   0.0800 
 32 H        3.4220    -1.6190    -0.0620 H     1 <1>   0.0800 
 33 H        3.8200    -1.2410    -1.7310 H     1 <1>   0.0800 
 34 H        5.9270    -0.3400    -1.0240 H     1 <1>   0.4500 
 35 H        7.5670     3.9080     0.1130 H     1 <1>   0.0800 
 36 H        8.5660     1.8360    -0.0020 H     1 <1>   0.0800 
 37 H        8.3220     1.7280    -1.7270 H     1 <1>   0.0800 
 38 H        5.1480     5.3090    -1.0250 H     1 <1>   0.0800 
 39 H        6.4950     4.6900    -1.9520 H     1 <1>   0.0800 
 40 H        6.7400     5.9710    -0.8040 H     1 <1>   0.0800 
 41 H        5.0570     6.2730     1.3750 H     1 <1>   0.0800 
 42 H        6.7780     6.4590     1.6780 H     1 <1>   0.0800 
 43 H        5.7050     5.9650     2.9620 H     1 <1>   0.0800 
 44 H       10.4090    -0.0870    -0.9250 H     1 <1>   0.0800 
 45 H        9.5600    -0.1050    -2.4420 H     1 <1>   0.0800 
 46 H        7.3340    -0.7480     1.0130 H     1 <1>   0.0800 
 47 H        8.8800    -0.0240     1.3030 H     1 <1>   0.0800 
 48 H        9.2720    -2.3800    -2.4510 H     1 <1>   0.0800 
 49 H       10.0260    -1.9790     1.0640 H     1 <1>   0.0800 
 50 H       11.6550    -2.1870    -0.5880 H     1 <1>   0.0800 
 51 H       11.7040    -2.0850    -2.3290 H     1 <1>   0.0800 
 52 H       11.2160    -3.5740    -1.5660 H     1 <1>   0.0800 
 53 H        7.2620    -3.1750     1.3660 H     1 <1>   0.0800 
 54 H        8.2480    -2.5840     2.6860 H     1 <1>   0.0800 
 55 H        8.7810    -3.9570     1.7520 H     1 <1>   0.0800 
@<TRIPOS>BOND
  1   1   2  2   
  2   2   3  am  
  3   2   4  am  
  4   3   5  am  
  5   3   6  1   
  6   4   7  1   
  7   4   8  1   
  8   5   9  2   
  9   5  10  1   
 10   6  28  1   
 11   6  29  1   
 12   6  30  1   
 13   7  10  2   
 14   7  11  1   
 15   8  31  1   
 16   8  32  1   
 17   8  33  1   
 18  10  12  1   
 19  11  13  ar  
 20  11  34  1   
 21  12  13  ar  
 22  12  14  1   
 23  13  15  1   
 24  14  16  1   
 25  14  17  1   
 26  14  35  1   
 27  15  18  1   
 28  15  36  1   
 29  15  37  1   
 30  16  19  2   
 31  16  20  1   
 32  17  38  1   
 33  17  39  1   
 34  17  40  1   
 35  18  21  1   
 36  18  22  1   
 37  20  41  1   
 38  20  42  1   
 39  20  43  1   
 40  21  23  1   
 41  21  44  1   
 42  21  45  1   
 43  22  24  1   
 44  22  46  1   
 45  22  47  1   
 46  23  25  1   
 47  23  26  1   
 48  23  48  1   
 49  24  25  1   
 50  24  27  1   
 51  24  49  1   
 52  26  50  1   
 53  26  51  1   
 54  26  52  1   
 55  27  53  1   
 56  27  54  1   
 57  27  55  1   
@<TRIPOS>SUBSTRUCTURE
  1 ****  13 GROUP 4 **** **** 0

# MOE 2024.06 (io_trps.svl 2023.06)
