@<TRIPOS>MOLECULE
(2,2-Dimethyl-5-morpholin-4-yl-1,4-dihydro-2H-3-oxa-7-thia-6,9,10,11-tetraaza-be
56 60 1 0 0 
SMALL
USER_CHARGES


@<TRIPOS>ATOM
  1 S       -0.6540    -0.5680     1.3010 S.3   1 <1>  -0.0800 
  2 C       -2.0620     0.3360     0.7320 C.ar  1 <1>   0.2970 
  3 C        0.4100     0.8280     1.0520 C.ar  1 <1>   0.0400 
  4 N       -3.2410    -0.2440     0.6730 N.ar  1 <1>  -0.5670 
  5 C       -1.7080     1.6370     0.3940 C.ar  1 <1>   0.0000 
  6 C        1.7640     0.9600     1.2760 C.ar  1 <1>   0.4100 
  7 C       -0.2980     1.8950     0.5820 C.ar  1 <1>   0.2560 
  8 C       -4.2010     0.5510     0.2190 C.ar  1 <1>   0.4100 
  9 C       -2.7410     2.4560    -0.0630 C.ar  1 <1>  -0.1430 
 10 N        2.3370     2.1280     1.0450 N.ar  1 <1>  -0.3100 
 11 N        2.5880    -0.0380     1.7440 N.pl3 1 <1>  -0.8690 
 12 N        0.3290     3.0440     0.3420 N.ar  1 <1>  -0.2560 
 13 N       -5.4540    -0.0100     0.1240 N.pl3 1 <1>  -0.8380 
 14 C       -3.9940     1.8870    -0.1580 C.ar  1 <1>  -0.1430 
 15 C       -2.5430     3.9120    -0.4650 C.3   1 <1>  -0.0170 
 16 N        1.6180     3.1370     0.5800 N.ar  1 <1>   0.0000 
 17 C        2.5850    -1.4260     1.2070 C.3   1 <1>   0.2090 
 18 C       -5.6870    -0.8920    -1.0550 C.3   1 <1>   0.2090 
 19 C       -6.0230    -0.6160     1.3630 C.3   1 <1>   0.2090 
 20 C       -5.1880     2.6960    -0.6550 C.3   1 <1>   0.2630 
 21 C       -3.8700     4.6910    -0.5370 C.3   1 <1>   0.2800 
 22 C        3.9580    -1.7770     0.6310 C.3   1 <1>   0.1200 
 23 C       -7.1740    -1.2780    -1.1620 C.3   1 <1>   0.1200 
 24 C       -7.4950    -1.0120     1.1490 C.3   1 <1>   0.1200 
 25 O       -4.8100     3.9230    -1.2220 O.3   1 <1>  -0.5600 
 26 C       -4.4120     5.0640     0.8520 C.3   1 <1>  -0.2400 
 27 C       -3.6970     5.9650    -1.3660 C.3   1 <1>  -0.2400 
 28 O        3.9140    -3.0800     0.1410 O.3   1 <1>  -0.5600 
 29 O       -7.6360    -1.8480     0.0320 O.3   1 <1>  -0.5600 
 30 C        5.1100    -3.5120    -0.4250 C.3   1 <1>   0.0400 
 31 H        3.5140     0.2960     2.0240 H     1 <1>   0.4000 
 32 H       -2.0600     3.9350    -1.4260 H     1 <1>   0.0800 
 33 H       -1.8990     4.4100     0.2360 H     1 <1>   0.0800 
 34 H        1.8510    -1.5210     0.4260 H     1 <1>   0.0800 
 35 H        2.3420    -2.1110     2.0010 H     1 <1>   0.0800 
 36 H       -5.0930    -1.7850    -0.9560 H     1 <1>   0.0800 
 37 H       -5.3790    -0.3840    -1.9520 H     1 <1>   0.0800 
 38 H       -5.9500     0.0900     2.1720 H     1 <1>   0.0800 
 39 H       -5.4560    -1.4910     1.6310 H     1 <1>   0.0800 
 40 H       -5.8710     2.8880     0.1530 H     1 <1>   0.0800 
 41 H       -5.7130     2.1480    -1.4160 H     1 <1>   0.0800 
 42 H        4.7090    -1.7270     1.4000 H     1 <1>   0.0800 
 43 H        4.2000    -1.1130    -0.1800 H     1 <1>   0.0800 
 44 H       -7.3130    -2.0010    -1.9460 H     1 <1>   0.0800 
 45 H       -7.7700    -0.4100    -1.3810 H     1 <1>   0.0800 
 46 H       -8.1000    -0.1350     1.0000 H     1 <1>   0.0800 
 47 H       -7.8630    -1.5460     2.0070 H     1 <1>   0.0800 
 48 H       -4.4640     4.2070     1.4970 H     1 <1>   0.0800 
 49 H       -5.3870     5.5070     0.7640 H     1 <1>   0.0800 
 50 H       -3.7580     5.7780     1.3190 H     1 <1>   0.0800 
 51 H       -3.3760     5.7210    -2.3620 H     1 <1>   0.0800 
 52 H       -2.9610     6.6070    -0.9170 H     1 <1>   0.0800 
 53 H       -4.6280     6.4990    -1.4230 H     1 <1>   0.0800 
 54 H        4.9720    -4.5220    -0.7690 H     1 <1>   0.0800 
 55 H        5.8860    -3.4870     0.3200 H     1 <1>   0.0800 
 56 H        5.3610    -2.8770    -1.2570 H     1 <1>   0.0800 
@<TRIPOS>BOND
  1   1   2  1   
  2   1   3  1   
  3   2   4  ar  
  4   2   5  ar  
  5   3   6  ar  
  6   3   7  ar  
  7   4   8  ar  
  8   5   7  1   
  9   5   9  ar  
 10   6  10  ar  
 11   6  11  1   
 12   7  12  ar  
 13   8  13  1   
 14   8  14  ar  
 15   9  14  ar  
 16   9  15  1   
 17  10  16  ar  
 18  11  17  1   
 19  11  31  1   
 20  12  16  ar  
 21  13  18  1   
 22  13  19  1   
 23  14  20  1   
 24  15  21  1   
 25  15  32  1   
 26  15  33  1   
 27  17  22  1   
 28  17  34  1   
 29  17  35  1   
 30  18  23  1   
 31  18  36  1   
 32  18  37  1   
 33  19  24  1   
 34  19  38  1   
 35  19  39  1   
 36  20  25  1   
 37  20  40  1   
 38  20  41  1   
 39  21  25  1   
 40  21  26  1   
 41  21  27  1   
 42  22  28  1   
 43  22  42  1   
 44  22  43  1   
 45  23  29  1   
 46  23  44  1   
 47  23  45  1   
 48  24  29  1   
 49  24  46  1   
 50  24  47  1   
 51  26  48  1   
 52  26  49  1   
 53  26  50  1   
 54  27  51  1   
 55  27  52  1   
 56  27  53  1   
 57  28  30  1   
 58  30  54  1   
 59  30  55  1   
 60  30  56  1   
@<TRIPOS>SUBSTRUCTURE
  1 ****   5 GROUP 4 **** **** 0

# MOE 2024.06 (io_trps.svl 2023.06)
