@<TRIPOS>MOLECULE
5-Methyl-4,5,6,7-tetrahydro-2H-indazole-3-carboxylic acid
24 25 1 0 0 
SMALL
USER_CHARGES


@<TRIPOS>ATOM
  1 O       -0.3990     0.1070    -0.1550 O.co2 1 <1>  -0.9000 
  2 C       -1.5500     0.4700     0.1720 C.2   1 <1>   1.0330 
  3 O       -2.3370    -0.4360     0.5340 O.co2 1 <1>  -0.9000 
  4 C       -1.9890     1.8840     0.1240 C.2   1 <1>   0.0560 
  5 N       -1.2300     2.9780     0.0570 N.2   1 <1>  -0.7070 
  6 C       -3.3420     2.2800     0.1490 C.2   1 <1>  -0.1810 
  7 N       -2.0740     4.0160     0.0450 N.pl3 1 <1>   0.3000 
  8 C       -3.3560     3.6220     0.1060 C.2   1 <1>  -0.3320 
  9 C       -4.6010     1.4340     0.2160 C.3   1 <1>   0.0210 
 10 C       -4.5940     4.4950     0.1170 C.3   1 <1>   0.0200 
 11 C       -5.8440     2.2770    -0.1490 C.3   1 <1>  -0.0800 
 12 C       -5.8140     3.6570     0.5440 C.3   1 <1>  -0.1600 
 13 C       -7.1320     1.5200     0.2000 C.3   1 <1>  -0.2400 
 14 H       -1.7390     4.9830    -0.0030 H     1 <1>   0.2700 
 15 H       -4.6860     1.0410     1.2140 H     1 <1>   0.0800 
 16 H       -4.5120     0.6030    -0.4610 H     1 <1>   0.0800 
 17 H       -4.7510     4.8870    -0.8720 H     1 <1>   0.0800 
 18 H       -4.4650     5.3170     0.7980 H     1 <1>   0.0800 
 19 H       -5.8240     2.4390    -1.2140 H     1 <1>   0.0800 
 20 H       -6.7120     4.2040     0.3220 H     1 <1>   0.0800 
 21 H       -5.7700     3.5050     1.6090 H     1 <1>   0.0800 
 22 H       -7.1910     1.3470     1.2600 H     1 <1>   0.0800 
 23 H       -7.1480     0.5690    -0.3040 H     1 <1>   0.0800 
 24 H       -7.9930     2.0840    -0.1080 H     1 <1>   0.0800 
@<TRIPOS>BOND
  1   1   2  ar  
  2   2   3  ar  
  3   2   4  1   
  4   4   5  2   
  5   4   6  1   
  6   5   7  1   
  7   6   8  2   
  8   6   9  1   
  9   7   8  1   
 10   7  14  1   
 11   8  10  1   
 12   9  11  1   
 13   9  15  1   
 14   9  16  1   
 15  10  12  1   
 16  10  17  1   
 17  10  18  1   
 18  11  12  1   
 19  11  13  1   
 20  11  19  1   
 21  12  20  1   
 22  12  21  1   
 23  13  22  1   
 24  13  23  1   
 25  13  24  1   
@<TRIPOS>SUBSTRUCTURE
  1 ****   6 GROUP 4 **** **** 0

# MOE 2024.06 (io_trps.svl 2023.06)
