@<TRIPOS>MOLECULE
1-(3,5-Dimethyl-phenyl)-5-oxo-pyrrolidine-3-carboxylic acid (2,5-dimethoxy-pheny
51 53 1 0 0 
SMALL
USER_CHARGES


@<TRIPOS>ATOM
  1 O        0.6390    -0.0300     1.3470 O.2   1 <1>  -0.5700 
  2 C        1.6730    -0.2860     0.7820 C.2   1 <1>   0.5690 
  3 N        2.0640    -1.4910     0.2720 N.am  1 <1>  -0.4770 
  4 C        2.7160     0.7710     0.5510 C.3   1 <1>  -0.0990 
  5 C        1.3540    -2.7090     0.2400 C.ar  1 <1>   0.1170 
  6 C        3.4040    -1.3770    -0.3420 C.3   1 <1>   0.1400 
  7 C        3.6260     0.1330    -0.5090 C.3   1 <1>  -0.0190 
  8 C        2.0210    -3.9270     0.3420 C.ar  1 <1>  -0.1500 
  9 C       -0.0290    -2.7310     0.0930 C.ar  1 <1>  -0.1500 
 10 C        5.0860     0.5540    -0.4150 C.2   1 <1>   0.5690 
 11 C        1.3350    -5.1290     0.2890 C.ar  1 <1>  -0.1440 
 12 C       -0.7300    -3.9230     0.0440 C.ar  1 <1>  -0.1440 
 13 O        5.9400    -0.2950    -0.4650 O.2   1 <1>  -0.5700 
 14 N        5.3460     1.8900    -0.2960 N.am  1 <1>  -0.5470 
 15 C       -0.0420    -5.1210     0.1400 C.ar  1 <1>  -0.1500 
 16 C        2.0730    -6.4510     0.4000 C.3   1 <1>  -0.0970 
 17 C       -2.2390    -3.9240    -0.1130 C.3   1 <1>  -0.0970 
 18 C        6.5300     2.6410    -0.1690 C.ar  1 <1>   0.1170 
 19 C        6.4040     4.0280    -0.0310 C.ar  1 <1>   0.0830 
 20 C        7.8010     2.0800    -0.1720 C.ar  1 <1>  -0.1500 
 21 O        5.1330     4.5410    -0.0310 O.3   1 <1>  -0.3630 
 22 C        7.5400     4.8220     0.0990 C.ar  1 <1>  -0.1500 
 23 C        8.9310     2.8680    -0.0410 C.ar  1 <1>   0.0830 
 24 C        4.9090     5.9260     0.1240 C.3   1 <1>   0.0400 
 25 C        8.7980     4.2450     0.0940 C.ar  1 <1>  -0.1500 
 26 O       10.1280     2.2240    -0.0550 O.3   1 <1>  -0.3620 
 27 C       11.3410     2.9320     0.0670 C.3   1 <1>   0.0400 
 28 H        3.2390     0.9380     1.4750 H     1 <1>   0.0800 
 29 H        2.2660     1.6840     0.2070 H     1 <1>   0.0800 
 30 H        3.4420    -1.8870    -1.2890 H     1 <1>   0.0800 
 31 H        4.1300    -1.8040     0.3310 H     1 <1>   0.0800 
 32 H        3.2660     0.4050    -1.4850 H     1 <1>   0.0800 
 33 H        3.0860    -3.9370     0.4710 H     1 <1>   0.1500 
 34 H       -0.5610    -1.8000     0.0160 H     1 <1>   0.1500 
 35 H        4.5300     2.5040    -0.2810 H     1 <1>   0.3700 
 36 H       -0.5810    -6.0510     0.1000 H     1 <1>   0.1500 
 37 H        3.1320    -6.3110     0.2770 H     1 <1>   0.0800 
 38 H        1.7290    -7.1300    -0.3590 H     1 <1>   0.0800 
 39 H        1.8920    -6.8870     1.3660 H     1 <1>   0.0800 
 40 H       -2.6510    -2.9720     0.1720 H     1 <1>   0.0800 
 41 H       -2.6770    -4.6820     0.5110 H     1 <1>   0.0800 
 42 H       -2.4980    -4.1220    -1.1380 H     1 <1>   0.0800 
 43 H        7.9350     1.0210    -0.2760 H     1 <1>   0.1500 
 44 H        7.4720     5.8880     0.2050 H     1 <1>   0.1500 
 45 H        3.8480     6.0980     0.1030 H     1 <1>   0.0800 
 46 H        5.3790     6.4500    -0.6890 H     1 <1>   0.0800 
 47 H        5.3100     6.2420     1.0710 H     1 <1>   0.0800 
 48 H        9.6570     4.8810     0.1970 H     1 <1>   0.1500 
 49 H       12.1460     2.2210     0.0290 H     1 <1>   0.0800 
 50 H       11.3520     3.4450     1.0120 H     1 <1>   0.0800 
 51 H       11.4260     3.6240    -0.7510 H     1 <1>   0.0800 
@<TRIPOS>BOND
  1   1   2  2   
  2   2   3  am  
  3   2   4  1   
  4   3   5  1   
  5   3   6  1   
  6   4   7  1   
  7   4  28  1   
  8   4  29  1   
  9   5   8  ar  
 10   5   9  ar  
 11   6   7  1   
 12   6  30  1   
 13   6  31  1   
 14   7  10  1   
 15   7  32  1   
 16   8  11  ar  
 17   8  33  1   
 18   9  12  ar  
 19   9  34  1   
 20  10  13  2   
 21  10  14  am  
 22  11  15  ar  
 23  11  16  1   
 24  12  15  ar  
 25  12  17  1   
 26  14  18  1   
 27  14  35  1   
 28  15  36  1   
 29  16  37  1   
 30  16  38  1   
 31  16  39  1   
 32  17  40  1   
 33  17  41  1   
 34  17  42  1   
 35  18  19  ar  
 36  18  20  ar  
 37  19  21  1   
 38  19  22  ar  
 39  20  23  ar  
 40  20  43  1   
 41  21  24  1   
 42  22  25  ar  
 43  22  44  1   
 44  23  25  ar  
 45  23  26  1   
 46  24  45  1   
 47  24  46  1   
 48  24  47  1   
 49  25  48  1   
 50  26  27  1   
 51  27  49  1   
 52  27  50  1   
 53  27  51  1   
@<TRIPOS>SUBSTRUCTURE
  1 ****   7 GROUP 4 **** **** 0

# MOE 2024.06 (io_trps.svl 2023.06)
