@<TRIPOS>MOLECULE
8-(4-Ethyl-phenyl)-1,3-dimethyl-7,8-dihydro-1H,6H-imidazo[2,1-f]purine-2,4-dione
44 47 1 0 0 
SMALL
USER_CHARGES


@<TRIPOS>ATOM
  1 O        0.8490    -0.1200     0.3270 O.2   1 <1>  -0.5750 
  2 C        1.8140     0.6110     0.2280 C.2   1 <1>   0.6860 
  3 N        1.6350     1.9890     0.1310 N.am  1 <1>  -0.4260 
  4 N        3.0930     0.0660     0.2120 N.am  1 <1>  -0.4420 
  5 C        2.7200     2.8500     0.0290 C.2   1 <1>   0.6990 
  6 C        0.2440     2.5400     0.1650 C.3   1 <1>   0.0510 
  7 C        4.1650     0.9270     0.0780 C.2   1 <1>   0.4200 
  8 C        3.3000    -1.4090     0.3180 C.3   1 <1>   0.0510 
  9 O        2.5690     4.0590    -0.0240 O.2   1 <1>  -0.5750 
 10 C        4.0270     2.2720    -0.0100 C.2   1 <1>   0.2700 
 11 N        5.4970     0.6120     0.0180 N.pl3 1 <1>  -0.7040 
 12 N        5.3270     2.7740    -0.1240 N.pl3 1 <1>  -0.7680 
 13 C        6.1540     1.7590    -0.1010 C.cat 1 <1>   1.0690 
 14 C        6.0350     4.0620    -0.2320 C.3   1 <1>   0.3470 
 15 N        7.4360     2.1080    -0.1850 N.pl3 1 <1>  -0.5800 
 16 C        7.5150     3.6000    -0.2630 C.3   1 <1>   0.1590 
 17 C        8.5490     1.2660    -0.2150 C.ar  1 <1>   0.3040 
 18 C        8.6900     0.3230    -1.2260 C.ar  1 <1>  -0.1580 
 19 C        9.5170     1.3450     0.7750 C.ar  1 <1>  -0.1580 
 20 C        9.7740    -0.5350    -1.2370 C.ar  1 <1>  -0.1580 
 21 C       10.6010     0.4860     0.7640 C.ar  1 <1>  -0.1580 
 22 C       10.7340    -0.4590    -0.2410 C.ar  1 <1>  -0.1520 
 23 C       11.9250    -1.4040    -0.2510 C.3   1 <1>  -0.0260 
 24 C       11.5980    -2.6900     0.5110 C.3   1 <1>  -0.2480 
 25 H       -0.4140     1.9190    -0.4190 H     1 <1>   0.0710 
 26 H        0.2100     3.5370    -0.2380 H     1 <1>   0.0710 
 27 H       -0.1090     2.5600     1.1810 H     1 <1>   0.0710 
 28 H        2.4470    -1.8810     0.7750 H     1 <1>   0.0710 
 29 H        4.1620    -1.6240     0.9240 H     1 <1>   0.0710 
 30 H        3.4370    -1.8270    -0.6640 H     1 <1>   0.0710 
 31 H        5.9340    -0.3050     0.0750 H     1 <1>   0.4440 
 32 H        5.8330     4.6860     0.6230 H     1 <1>   0.0710 
 33 H        5.7620     4.5780    -1.1370 H     1 <1>   0.0710 
 34 H        8.0580     3.9970     0.5770 H     1 <1>   0.0710 
 35 H        7.9940     3.9060    -1.1780 H     1 <1>   0.0710 
 36 H        7.9620     0.2580    -2.0140 H     1 <1>   0.1420 
 37 H        9.4280     2.0690     1.5640 H     1 <1>   0.1420 
 38 H        9.8780    -1.2640    -2.0230 H     1 <1>   0.1420 
 39 H       11.3460     0.5500     1.5400 H     1 <1>   0.1420 
 40 H       12.7750    -0.9240     0.2020 H     1 <1>   0.0710 
 41 H       12.1910    -1.6450    -1.2660 H     1 <1>   0.0710 
 42 H       11.3500    -2.4630     1.5330 H     1 <1>   0.0710 
 43 H       12.4470    -3.3500     0.5010 H     1 <1>   0.0710 
 44 H       10.7640    -3.1920     0.0550 H     1 <1>   0.0710 
@<TRIPOS>BOND
  1   1   2  2   
  2   2   3  am  
  3   2   4  am  
  4   3   5  am  
  5   3   6  1   
  6   4   7  1   
  7   4   8  1   
  8   5   9  2   
  9   5  10  1   
 10   6  25  1   
 11   6  26  1   
 12   6  27  1   
 13   7  10  2   
 14   7  11  1   
 15   8  28  1   
 16   8  29  1   
 17   8  30  1   
 18  10  12  1   
 19  11  13  ar  
 20  11  31  1   
 21  12  13  ar  
 22  12  14  1   
 23  13  15  ar  
 24  14  16  1   
 25  14  32  1   
 26  14  33  1   
 27  15  16  1   
 28  15  17  1   
 29  16  34  1   
 30  16  35  1   
 31  17  18  ar  
 32  17  19  ar  
 33  18  20  ar  
 34  18  36  1   
 35  19  21  ar  
 36  19  37  1   
 37  20  22  ar  
 38  20  38  1   
 39  21  22  ar  
 40  21  39  1   
 41  22  23  1   
 42  23  24  1   
 43  23  40  1   
 44  23  41  1   
 45  24  42  1   
 46  24  43  1   
 47  24  44  1   
@<TRIPOS>SUBSTRUCTURE
  1 ****  13 GROUP 4 **** **** 0

# MOE 2024.06 (io_trps.svl 2023.06)
