@<TRIPOS>MOLECULE
1-(5-Chloro-2-ethoxy-benzenesulfonyl)-piperidine-4-carboxylic acid ethylamide
47 48 1 0 0 
SMALL
USER_CHARGES


@<TRIPOS>ATOM
  1 CL       0.0950     0.3640    -1.7610 Cl    1 <1>  -0.1770 
  2 C        0.1730     2.0610    -1.3640 C.ar  1 <1>   0.1770 
  3 C        1.0030     2.4800    -0.3420 C.ar  1 <1>  -0.1500 
  4 C       -0.5950     2.9580    -2.0790 C.ar  1 <1>  -0.1500 
  5 C        1.0840     3.8260     0.0040 C.ar  1 <1>  -0.0090 
  6 C       -0.5220     4.3000    -1.7590 C.ar  1 <1>  -0.1500 
  7 S        2.1860     4.3480     1.3480 S.o2  1 <1>   1.4470 
  8 C        0.3080     4.7260    -0.7290 C.ar  1 <1>   0.0830 
  9 O        2.4150     3.1950     2.1930 O.2   1 <1>  -0.6500 
 10 O        1.7540     5.5710     1.9940 O.2   1 <1>  -0.6500 
 11 N        3.6660     4.6880     0.5880 N.am  1 <1>  -0.8490 
 12 O        0.3710     6.0460    -0.4740 O.3   1 <1>  -0.3630 
 13 C        4.7540     4.7370     1.5700 C.3   1 <1>   0.1960 
 14 C        3.6060     5.9160    -0.2130 C.3   1 <1>   0.1960 
 15 C       -0.7130     6.6140     0.2250 C.3   1 <1>   0.1200 
 16 C        6.1050     4.9220     0.8740 C.3   1 <1>  -0.1600 
 17 C        4.9220     6.1360    -0.9640 C.3   1 <1>  -0.1600 
 18 C       -0.3700     8.0700     0.5180 C.3   1 <1>  -0.2400 
 19 C        6.1150     6.1870     0.0020 C.3   1 <1>  -0.0190 
 20 C        7.4410     6.3500    -0.7380 C.2   1 <1>   0.5690 
 21 O        7.7800     5.5190    -1.5460 O.2   1 <1>  -0.5700 
 22 N        8.2090     7.4370    -0.4620 N.am  1 <1>  -0.7300 
 23 C        9.5200     7.7240    -1.0760 C.3   1 <1>   0.1400 
 24 C       10.5040     8.0880     0.0290 C.3   1 <1>  -0.2400 
 25 H        1.5900     1.7500     0.1890 H     1 <1>   0.1500 
 26 H       -1.2320     2.6070    -2.8720 H     1 <1>   0.1500 
 27 H       -1.1000     5.0210    -2.3110 H     1 <1>   0.1500 
 28 H        4.7840     3.8140     2.1260 H     1 <1>   0.0800 
 29 H        4.5800     5.5410     2.2660 H     1 <1>   0.0800 
 30 H        3.3970     6.7630     0.4220 H     1 <1>   0.0800 
 31 H        2.8170     5.8380    -0.9400 H     1 <1>   0.0800 
 32 H       -0.8530     6.0650     1.1410 H     1 <1>   0.0800 
 33 H       -1.5960     6.5400    -0.3860 H     1 <1>   0.0800 
 34 H        6.3020     4.0570     0.2640 H     1 <1>   0.0800 
 35 H        6.8820     4.9840     1.6140 H     1 <1>   0.0800 
 36 H        4.8660     7.0550    -1.5200 H     1 <1>   0.0800 
 37 H        5.0570     5.3340    -1.6690 H     1 <1>   0.0800 
 38 H        0.5120     8.1210     1.1320 H     1 <1>   0.0800 
 39 H       -1.1820     8.5350     1.0480 H     1 <1>   0.0800 
 40 H       -0.2040     8.6060    -0.3990 H     1 <1>   0.0800 
 41 H        5.9840     7.0370     0.6480 H     1 <1>   0.0800 
 42 H        7.8870     8.1260     0.2170 H     1 <1>   0.3700 
 43 H        9.4190     8.5410    -1.7700 H     1 <1>   0.0800 
 44 H        9.8740     6.8600    -1.6150 H     1 <1>   0.0800 
 45 H       10.1760     8.9650     0.5560 H     1 <1>   0.0800 
 46 H       11.4680     8.2900    -0.4020 H     1 <1>   0.0800 
 47 H       10.6070     7.2680     0.7180 H     1 <1>   0.0800 
@<TRIPOS>BOND
  1   1   2  1   
  2   2   3  ar  
  3   2   4  ar  
  4   3   5  ar  
  5   3  25  1   
  6   4   6  ar  
  7   4  26  1   
  8   5   7  1   
  9   5   8  ar  
 10   6   8  ar  
 11   6  27  1   
 12   7   9  2   
 13   7  10  2   
 14   7  11  am  
 15   8  12  1   
 16  11  13  1   
 17  11  14  1   
 18  12  15  1   
 19  13  16  1   
 20  13  28  1   
 21  13  29  1   
 22  14  17  1   
 23  14  30  1   
 24  14  31  1   
 25  15  18  1   
 26  15  32  1   
 27  15  33  1   
 28  16  19  1   
 29  16  34  1   
 30  16  35  1   
 31  17  19  1   
 32  17  36  1   
 33  17  37  1   
 34  18  38  1   
 35  18  39  1   
 36  18  40  1   
 37  19  20  1   
 38  19  41  1   
 39  20  21  2   
 40  20  22  am  
 41  22  23  1   
 42  22  42  1   
 43  23  24  1   
 44  23  43  1   
 45  23  44  1   
 46  24  45  1   
 47  24  46  1   
 48  24  47  1   
@<TRIPOS>SUBSTRUCTURE
  1 ****  14 GROUP 4 **** **** 0

# MOE 2024.06 (io_trps.svl 2023.06)
