@<TRIPOS>MOLECULE
4-Methoxy-N-methyl-N-[4-(morpholine-4-carbonyl)-phenyl]-benzenesulfonamide
49 51 1 0 0 
SMALL
USER_CHARGES


@<TRIPOS>ATOM
  1 S       -0.3500    -0.7980     2.0080 S.o2  1 <1>   1.4470 
  2 O       -0.0280    -2.1510     1.6160 O.2   1 <1>  -0.6500 
  3 O       -1.1900    -0.5520     3.1600 O.2   1 <1>  -0.6500 
  4 N        1.1520     0.0230     2.3210 N.am  1 <1>  -0.6930 
  5 C       -0.9800     0.1350     0.5870 C.ar  1 <1>  -0.0090 
  6 C        2.2100    -0.0620     1.4290 C.ar  1 <1>   0.1990 
  7 C        1.1270     1.1030     3.3360 C.3   1 <1>   0.1160 
  8 C       -1.9930     1.0780     0.7310 C.ar  1 <1>  -0.1500 
  9 C       -0.4410    -0.0470    -0.6820 C.ar  1 <1>  -0.1500 
 10 C        2.8610    -1.2700     1.2070 C.ar  1 <1>  -0.1500 
 11 C        2.6420     1.0520     0.7160 C.ar  1 <1>  -0.1500 
 12 C       -2.4530     1.8150    -0.3480 C.ar  1 <1>  -0.1500 
 13 C       -0.8920     0.6850    -1.7660 C.ar  1 <1>  -0.1500 
 14 C        3.9020    -1.3630     0.3050 C.ar  1 <1>  -0.1500 
 15 C        3.6870     0.9570    -0.1840 C.ar  1 <1>  -0.1500 
 16 C       -1.8990     1.6210    -1.6080 C.ar  1 <1>   0.0830 
 17 C        4.3510    -0.2490    -0.4090 C.ar  1 <1>   0.0860 
 18 O       -2.2840     2.2980    -2.7160 O.3   1 <1>  -0.3630 
 19 C        5.4450    -0.3340    -1.3560 C.2   1 <1>   0.5440 
 20 C       -3.3240     3.2500    -2.6740 C.3   1 <1>   0.0400 
 21 O        5.3500     0.2340    -2.4290 O.2   1 <1>  -0.5700 
 22 N        6.6020    -1.0330    -1.0800 N.am  1 <1>  -0.6600 
 23 C        7.1220    -1.2730     0.3000 C.3   1 <1>   0.1400 
 24 C        7.5940    -1.3740    -2.1450 C.3   1 <1>   0.1400 
 25 C        8.5240    -0.6610     0.4680 C.3   1 <1>   0.1200 
 26 C        8.9620    -0.7470    -1.8340 C.3   1 <1>   0.1200 
 27 O        9.3830    -1.1010    -0.5460 O.3   1 <1>  -0.5600 
 28 H        0.8050     0.7020     4.2820 H     1 <1>   0.0800 
 29 H        0.4430     1.8770     3.0330 H     1 <1>   0.0800 
 30 H        2.1100     1.5250     3.4580 H     1 <1>   0.0800 
 31 H       -2.4300     1.2380     1.7020 H     1 <1>   0.1500 
 32 H        0.3440    -0.7720    -0.8250 H     1 <1>   0.1500 
 33 H        2.5380    -2.1440     1.7470 H     1 <1>   0.1500 
 34 H        2.1460     1.9940     0.8570 H     1 <1>   0.1500 
 35 H       -3.2380     2.5300    -0.1880 H     1 <1>   0.1500 
 36 H       -0.4640     0.5340    -2.7410 H     1 <1>   0.1500 
 37 H        4.3770    -2.3140     0.1390 H     1 <1>   0.1500 
 38 H        4.0010     1.8280    -0.7360 H     1 <1>   0.1500 
 39 H       -3.4580     3.6420    -3.6660 H     1 <1>   0.0800 
 40 H       -3.0450     4.0430    -2.0020 H     1 <1>   0.0800 
 41 H       -4.2270     2.7670    -2.3470 H     1 <1>   0.0800 
 42 H        7.1750    -2.3320     0.4800 H     1 <1>   0.0800 
 43 H        6.4670    -0.8390     1.0340 H     1 <1>   0.0800 
 44 H        7.2560    -1.0320    -3.1070 H     1 <1>   0.0800 
 45 H        7.7000    -2.4430    -2.1970 H     1 <1>   0.0800 
 46 H        8.9490    -0.9590     1.4090 H     1 <1>   0.0800 
 47 H        8.4750     0.4130     0.4340 H     1 <1>   0.0800 
 48 H        8.9070     0.3260    -1.9010 H     1 <1>   0.0800 
 49 H        9.7000    -1.1010    -2.5310 H     1 <1>   0.0800 
@<TRIPOS>BOND
  1   1   2  2   
  2   1   3  2   
  3   1   4  am  
  4   1   5  1   
  5   4   6  1   
  6   4   7  1   
  7   5   8  ar  
  8   5   9  ar  
  9   6  10  ar  
 10   6  11  ar  
 11   7  28  1   
 12   7  29  1   
 13   7  30  1   
 14   8  12  ar  
 15   8  31  1   
 16   9  13  ar  
 17   9  32  1   
 18  10  14  ar  
 19  10  33  1   
 20  11  15  ar  
 21  11  34  1   
 22  12  16  ar  
 23  12  35  1   
 24  13  16  ar  
 25  13  36  1   
 26  14  17  ar  
 27  14  37  1   
 28  15  17  ar  
 29  15  38  1   
 30  16  18  1   
 31  17  19  1   
 32  18  20  1   
 33  19  21  2   
 34  19  22  am  
 35  20  39  1   
 36  20  40  1   
 37  20  41  1   
 38  22  23  1   
 39  22  24  1   
 40  23  25  1   
 41  23  42  1   
 42  23  43  1   
 43  24  26  1   
 44  24  44  1   
 45  24  45  1   
 46  25  27  1   
 47  25  46  1   
 48  25  47  1   
 49  26  27  1   
 50  26  48  1   
 51  26  49  1   
@<TRIPOS>SUBSTRUCTURE
  1 ****  11 GROUP 4 **** **** 0

# MOE 2024.06 (io_trps.svl 2023.06)
