@<TRIPOS>MOLECULE
3-(2-Morpholin-4-yl-ethyl)-3,5,6,7,8,9-hexahydro-10-thia-1,3-diaza-benzo[a]azule
48 51 1 0 0 
SMALL
USER_CHARGES


@<TRIPOS>ATOM
  1 S       -0.5680    -0.2490    -0.6720 S.3   1 <1>  -0.0800 
  2 C        1.0770     0.1330    -0.2380 C.ar  1 <1>   0.2970 
  3 C       -1.1300     1.3010    -0.0680 C.2   1 <1>  -0.1400 
  4 N        2.0700    -0.7450    -0.4360 N.ar  1 <1>  -0.5670 
  5 C        1.1820     1.3940     0.2980 C.ar  1 <1>   0.0000 
  6 C       -0.1170     2.0290     0.4350 C.2   1 <1>  -0.1810 
  7 C       -2.6110     1.6010    -0.1880 C.3   1 <1>   0.0200 
  8 C        3.2340    -0.3300    -0.0600 C.ar  1 <1>   0.5210 
  9 C        2.5020     1.8270     0.5710 C.ar  1 <1>   0.4610 
 10 C       -0.3970     3.3740     1.0920 C.3   1 <1>   0.0210 
 11 C       -2.8420     2.9050    -0.9650 C.3   1 <1>  -0.1600 
 12 N        3.4990     0.9080     0.4680 N.ar  1 <1>  -0.2100 
 13 N        2.7980     3.1020     0.8530 N.pl3 1 <1>  -0.9000 
 14 C       -0.9690     4.3810     0.0850 C.3   1 <1>  -0.1600 
 15 C       -2.4710     4.1870    -0.1960 C.3   1 <1>  -0.1600 
 16 C        4.8810     1.1550     0.9870 C.3   1 <1>   0.3280 
 17 C        5.7850     1.9040    -0.0130 C.3   1 <1>   0.1100 
 18 N        5.4750     3.3450    -0.0580 N.3   1 <1>  -0.8100 
 19 C        5.7650     3.9140    -1.3960 C.3   1 <1>   0.1100 
 20 C        6.2360     4.1140     0.9600 C.3   1 <1>   0.1100 
 21 C        5.4820     5.4270    -1.4330 C.3   1 <1>   0.1200 
 22 C        5.9400     5.6220     0.8580 C.3   1 <1>   0.1200 
 23 O        6.2070     6.0810    -0.4330 O.3   1 <1>  -0.5600 
 24 H       -3.0530     1.6640     0.7910 H     1 <1>   0.0800 
 25 H       -3.0930     0.7950    -0.7130 H     1 <1>   0.0800 
 26 H        4.0620    -1.0120    -0.1710 H     1 <1>   0.1500 
 27 H        0.4790     3.7800     1.5530 H     1 <1>   0.0800 
 28 H       -1.1070     3.2300     1.8880 H     1 <1>   0.0800 
 29 H       -3.8870     2.9600    -1.2150 H     1 <1>   0.0800 
 30 H       -2.2960     2.8680    -1.8920 H     1 <1>   0.0800 
 31 H        3.7630     3.4700     0.7510 H     1 <1>   0.4000 
 32 H        2.0950     3.8450     0.8830 H     1 <1>   0.4000 
 33 H       -0.4130     4.3370    -0.8360 H     1 <1>   0.0800 
 34 H       -0.8400     5.3700     0.4920 H     1 <1>   0.0800 
 35 H       -3.0190     4.2190     0.7300 H     1 <1>   0.0800 
 36 H       -2.8040     5.0260    -0.7840 H     1 <1>   0.0800 
 37 H        5.3410     0.2100     1.2160 H     1 <1>   0.0800 
 38 H        4.8270     1.7060     1.9100 H     1 <1>   0.0800 
 39 H        5.6570     1.4640    -0.9880 H     1 <1>   0.0800 
 40 H        6.8180     1.7710     0.2640 H     1 <1>   0.0800 
 41 H        5.1540     3.4310    -2.1380 H     1 <1>   0.0800 
 42 H        6.7990     3.7520    -1.6540 H     1 <1>   0.0800 
 43 H        7.2950     3.9690     0.8200 H     1 <1>   0.0800 
 44 H        5.9800     3.7770     1.9490 H     1 <1>   0.0800 
 45 H        4.4350     5.6250    -1.2870 H     1 <1>   0.0800 
 46 H        5.7850     5.8410    -2.3790 H     1 <1>   0.0800 
 47 H        6.5680     6.1730     1.5360 H     1 <1>   0.0800 
 48 H        4.9110     5.8310     1.0920 H     1 <1>   0.0800 
@<TRIPOS>BOND
  1   1   2  1   
  2   1   3  1   
  3   2   4  ar  
  4   2   5  ar  
  5   3   6  2   
  6   3   7  1   
  7   4   8  ar  
  8   5   6  1   
  9   5   9  ar  
 10   6  10  1   
 11   7  11  1   
 12   7  24  1   
 13   7  25  1   
 14   8  12  ar  
 15   8  26  1   
 16   9  12  ar  
 17   9  13  1   
 18  10  14  1   
 19  10  27  1   
 20  10  28  1   
 21  11  15  1   
 22  11  29  1   
 23  11  30  1   
 24  12  16  1   
 25  13  31  1   
 26  13  32  1   
 27  14  15  1   
 28  14  33  1   
 29  14  34  1   
 30  15  35  1   
 31  15  36  1   
 32  16  17  1   
 33  16  37  1   
 34  16  38  1   
 35  17  18  1   
 36  17  39  1   
 37  17  40  1   
 38  18  19  1   
 39  18  20  1   
 40  19  21  1   
 41  19  41  1   
 42  19  42  1   
 43  20  22  1   
 44  20  43  1   
 45  20  44  1   
 46  21  23  1   
 47  21  45  1   
 48  21  46  1   
 49  22  23  1   
 50  22  47  1   
 51  22  48  1   
@<TRIPOS>SUBSTRUCTURE
  1 ****   9 GROUP 4 **** **** 0

# MOE 2024.06 (io_trps.svl 2023.06)
