@<TRIPOS>MOLECULE
1-(4-Methoxy-3-methyl-benzenesulfonyl)-piperidine-4-carboxylic acid phenethyl-am
57 59 1 0 0 
SMALL
USER_CHARGES


@<TRIPOS>ATOM
  1 S       -0.0650    -0.3510    -2.4150 S.o2  1 <1>   1.4470 
  2 O        0.2710    -1.5900    -3.0840 O.2   1 <1>  -0.6500 
  3 O       -0.5340     0.7710    -3.2010 O.2   1 <1>  -0.6500 
  4 N        1.3320     0.1800    -1.6120 N.am  1 <1>  -0.8490 
  5 C       -1.2140    -0.6980    -1.0550 C.ar  1 <1>  -0.0090 
  6 C        1.1440     1.4980    -0.9990 C.3   1 <1>   0.1960 
  7 C        2.4970     0.1590    -2.4990 C.3   1 <1>   0.1960 
  8 C       -2.4910    -0.1490    -1.0300 C.ar  1 <1>  -0.1500 
  9 C       -0.8410    -1.5210    -0.0010 C.ar  1 <1>  -0.1500 
 10 C        2.3650     1.8670    -0.1540 C.3   1 <1>  -0.1600 
 11 C        3.7690     0.4940    -1.7140 C.3   1 <1>  -0.1600 
 12 C       -3.3710    -0.4010     0.0110 C.ar  1 <1>  -0.1440 
 13 C       -1.7050    -1.7860     1.0460 C.ar  1 <1>  -0.1500 
 14 C        3.6500     1.8490    -0.9980 C.3   1 <1>  -0.0190 
 15 C       -2.9780    -1.2250     1.0610 C.ar  1 <1>   0.0820 
 16 C       -4.7590     0.2240    -0.0050 C.3   1 <1>  -0.0970 
 17 C        4.8880     2.1440    -0.1530 C.2   1 <1>   0.5690 
 18 O       -3.8700    -1.4450     2.0610 O.3   1 <1>  -0.3630 
 19 O        5.1140     1.4780     0.8280 O.2   1 <1>  -0.5700 
 20 N        5.7170     3.1510    -0.5380 N.am  1 <1>  -0.7300 
 21 C       -3.5700    -2.2830     3.1550 C.3   1 <1>   0.0400 
 22 C        6.9370     3.5570     0.2020 C.3   1 <1>   0.1400 
 23 C        8.1610     2.8500    -0.3790 C.3   1 <1>  -0.0170 
 24 C        9.4150     3.2820     0.3620 C.ar  1 <1>  -0.1440 
 25 C       10.2350     4.2750    -0.1520 C.ar  1 <1>  -0.1500 
 26 C        9.7460     2.6840     1.5690 C.ar  1 <1>  -0.1500 
 27 C       11.3730     4.6660     0.5330 C.ar  1 <1>  -0.1500 
 28 C       10.8830     3.0740     2.2540 C.ar  1 <1>  -0.1500 
 29 C       11.6980     4.0660     1.7360 C.ar  1 <1>  -0.1500 
 30 H        0.2740     1.4830    -0.3620 H     1 <1>   0.0800 
 31 H        0.9870     2.2420    -1.7630 H     1 <1>   0.0800 
 32 H        2.3560     0.8620    -3.3040 H     1 <1>   0.0800 
 33 H        2.6110    -0.8240    -2.9280 H     1 <1>   0.0800 
 34 H       -2.7960     0.4870    -1.8430 H     1 <1>   0.1500 
 35 H        0.1440    -1.9590    -0.0030 H     1 <1>   0.1500 
 36 H        2.4490     1.1640     0.6570 H     1 <1>   0.0800 
 37 H        2.2240     2.8430     0.2730 H     1 <1>   0.0800 
 38 H        4.6090     0.5080    -2.3840 H     1 <1>   0.0800 
 39 H        3.9410    -0.2850    -0.9900 H     1 <1>   0.0800 
 40 H       -1.3680    -2.4280     1.8380 H     1 <1>   0.1500 
 41 H        3.5640     2.6150    -1.7470 H     1 <1>   0.0800 
 42 H       -4.9060     0.8300    -0.8800 H     1 <1>   0.0800 
 43 H       -4.8910     0.8390     0.8670 H     1 <1>   0.0800 
 44 H       -5.5050    -0.5500     0.0050 H     1 <1>   0.0800 
 45 H        5.5180     3.6780    -1.3880 H     1 <1>   0.3700 
 46 H       -4.4270    -2.3030     3.8040 H     1 <1>   0.0800 
 47 H       -2.7230    -1.8800     3.6810 H     1 <1>   0.0800 
 48 H       -3.3650    -3.2730     2.7890 H     1 <1>   0.0800 
 49 H        6.8340     3.2960     1.2420 H     1 <1>   0.0800 
 50 H        7.0600     4.6240     0.1350 H     1 <1>   0.0800 
 51 H        8.2570     3.0850    -1.4240 H     1 <1>   0.0800 
 52 H        8.0380     1.7860    -0.2800 H     1 <1>   0.0800 
 53 H        9.9940     4.7500    -1.0870 H     1 <1>   0.1500 
 54 H        9.1170     1.9120     1.9790 H     1 <1>   0.1500 
 55 H       12.0060     5.4370     0.1290 H     1 <1>   0.1500 
 56 H       11.1330     2.6060     3.1900 H     1 <1>   0.1500 
 57 H       12.5820     4.3690     2.2690 H     1 <1>   0.1500 
@<TRIPOS>BOND
  1   1   2  2   
  2   1   3  2   
  3   1   4  am  
  4   1   5  1   
  5   4   6  1   
  6   4   7  1   
  7   5   8  ar  
  8   5   9  ar  
  9   6  10  1   
 10   6  30  1   
 11   6  31  1   
 12   7  11  1   
 13   7  32  1   
 14   7  33  1   
 15   8  12  ar  
 16   8  34  1   
 17   9  13  ar  
 18   9  35  1   
 19  10  14  1   
 20  10  36  1   
 21  10  37  1   
 22  11  14  1   
 23  11  38  1   
 24  11  39  1   
 25  12  15  ar  
 26  12  16  1   
 27  13  15  ar  
 28  13  40  1   
 29  14  17  1   
 30  14  41  1   
 31  15  18  1   
 32  16  42  1   
 33  16  43  1   
 34  16  44  1   
 35  17  19  2   
 36  17  20  am  
 37  18  21  1   
 38  20  22  1   
 39  20  45  1   
 40  21  46  1   
 41  21  47  1   
 42  21  48  1   
 43  22  23  1   
 44  22  49  1   
 45  22  50  1   
 46  23  24  1   
 47  23  51  1   
 48  23  52  1   
 49  24  25  ar  
 50  24  26  ar  
 51  25  27  ar  
 52  25  53  1   
 53  26  28  ar  
 54  26  54  1   
 55  27  29  ar  
 56  27  55  1   
 57  28  29  ar  
 58  28  56  1   
 59  29  57  1   
@<TRIPOS>SUBSTRUCTURE
  1 ****  10 GROUP 4 **** **** 0

# MOE 2024.06 (io_trps.svl 2023.06)
