@<TRIPOS>MOLECULE
2-(4-Methoxy-benzylamino)-4,5,6,7-tetrahydro-cyclopenta[d][1,2,4]triazolo[1,5-a]
40 43 1 0 0 
SMALL
USER_CHARGES


@<TRIPOS>ATOM
  1 O       -0.1360    -0.6630     1.5180 O.2   1 <1>  -0.5700 
  2 C       -0.5140    -1.6200     0.8540 C.2   1 <1>   0.5650 
  3 N       -1.7860    -2.2240     1.0260 N.pl3 1 <1>   0.5610 
  4 C        0.3110    -2.1980    -0.1600 C.2   1 <1>  -0.1240 
  5 N       -2.8220    -1.9550     1.8600 N.2   1 <1>  -0.7070 
  6 C       -2.1690    -3.2760     0.2490 C.2   1 <1>   0.2700 
  7 C       -0.0950    -3.2400    -0.9060 C.2   1 <1>  -0.0380 
  8 C        1.7060    -1.7590    -0.5340 C.3   1 <1>  -0.0220 
  9 C       -3.6780    -2.8500     1.5180 C.2   1 <1>   0.5990 
 10 N       -3.3490    -3.6850     0.5300 N.2   1 <1>  -0.5650 
 11 N       -1.3330    -3.8030    -0.7280 N.pl3 1 <1>  -0.5840 
 12 C        0.9320    -3.6920    -1.9090 C.3   1 <1>  -0.0220 
 13 C        2.0590    -2.6490    -1.7470 C.3   1 <1>  -0.1600 
 14 N       -4.9020    -2.9920     2.1010 N.pl3 1 <1>  -0.8520 
 15 C       -5.6800    -1.7550     2.2820 C.3   1 <1>   0.3530 
 16 C       -6.8840    -1.8260     1.3600 C.ar  1 <1>  -0.1430 
 17 C       -8.1430    -2.1240     1.8610 C.ar  1 <1>  -0.1500 
 18 C       -6.7310    -1.5990     0.0000 C.ar  1 <1>  -0.1500 
 19 C       -9.2330    -2.1890     1.0120 C.ar  1 <1>  -0.1500 
 20 C       -7.8200    -1.6630    -0.8520 C.ar  1 <1>  -0.1500 
 21 C       -9.0820    -1.9590    -0.3460 C.ar  1 <1>   0.0830 
 22 O      -10.2010    -2.0430    -1.1090 O.3   1 <1>  -0.3630 
 23 C      -10.1520    -1.8420    -2.5040 C.3   1 <1>   0.0400 
 24 H        2.3800    -1.9340     0.2860 H     1 <1>   0.0800 
 25 H        1.7220    -0.7150    -0.7960 H     1 <1>   0.0800 
 26 H       -1.6790    -4.6040    -1.2690 H     1 <1>   0.4000 
 27 H        0.5300    -3.6790    -2.9070 H     1 <1>   0.0800 
 28 H        1.2800    -4.6800    -1.6640 H     1 <1>   0.0800 
 29 H        3.0100    -3.1320    -1.6020 H     1 <1>   0.0800 
 30 H        2.1130    -2.0400    -2.6330 H     1 <1>   0.0800 
 31 H       -5.4420    -3.6320     1.5160 H     1 <1>   0.4000 
 32 H       -5.0940    -0.8810     2.0500 H     1 <1>   0.0800 
 33 H       -5.9920    -1.6840     3.3090 H     1 <1>   0.0800 
 34 H       -8.2800    -2.3100     2.9120 H     1 <1>   0.1500 
 35 H       -5.7560    -1.3740    -0.3980 H     1 <1>   0.1500 
 36 H      -10.2100    -2.4190     1.3960 H     1 <1>   0.1500 
 37 H       -7.6650    -1.4820    -1.8980 H     1 <1>   0.1500 
 38 H      -11.1470    -1.9630    -2.8930 H     1 <1>   0.0800 
 39 H       -9.4970    -2.5750    -2.9390 H     1 <1>   0.0800 
 40 H       -9.8010    -0.8440    -2.7000 H     1 <1>   0.0800 
@<TRIPOS>BOND
  1   1   2  2   
  2   2   3  1   
  3   2   4  1   
  4   3   5  1   
  5   3   6  1   
  6   4   7  2   
  7   4   8  1   
  8   5   9  2   
  9   6  10  2   
 10   6  11  1   
 11   7  11  1   
 12   7  12  1   
 13   8  13  1   
 14   8  24  1   
 15   8  25  1   
 16   9  10  1   
 17   9  14  1   
 18  11  26  1   
 19  12  13  1   
 20  12  27  1   
 21  12  28  1   
 22  13  29  1   
 23  13  30  1   
 24  14  15  1   
 25  14  31  1   
 26  15  16  1   
 27  15  32  1   
 28  15  33  1   
 29  16  17  ar  
 30  16  18  ar  
 31  17  19  ar  
 32  17  34  1   
 33  18  20  ar  
 34  18  35  1   
 35  19  21  ar  
 36  19  36  1   
 37  20  21  ar  
 38  20  37  1   
 39  21  22  1   
 40  22  23  1   
 41  23  38  1   
 42  23  39  1   
 43  23  40  1   
@<TRIPOS>SUBSTRUCTURE
  1 ****   9 GROUP 4 **** **** 0

# MOE 2024.06 (io_trps.svl 2023.06)
