@<TRIPOS>MOLECULE
1-Methanesulfonyl-piperidine-3-carboxylic acid (5-chloro-2-methoxy-phenyl)-amide
41 42 1 0 0 
SMALL
USER_CHARGES


@<TRIPOS>ATOM
  1 CL       0.2870    -0.4210     2.0610 Cl    1 <1>  -0.1770 
  2 C        0.0090    -1.9060     1.1860 C.ar  1 <1>   0.1770 
  3 C       -1.2710    -2.4160     1.1050 C.ar  1 <1>  -0.1500 
  4 C        1.0800    -2.5420     0.5890 C.ar  1 <1>  -0.1500 
  5 C       -1.5030    -3.5970     0.4100 C.ar  1 <1>   0.1170 
  6 C        0.8640    -3.7200    -0.1060 C.ar  1 <1>  -0.1500 
  7 N       -2.7770    -4.1820     0.2810 N.am  1 <1>  -0.5470 
  8 C       -0.4210    -4.2490    -0.1990 C.ar  1 <1>   0.0830 
  9 C       -4.0200    -3.8310     0.7240 C.2   1 <1>   0.5690 
 10 O       -0.6970    -5.4070    -0.8730 O.3   1 <1>  -0.3630 
 11 O       -4.2450    -2.8440     1.3820 O.2   1 <1>  -0.5700 
 12 C       -5.1800    -4.7480     0.3670 C.3   1 <1>  -0.0190 
 13 C        0.3120    -6.1130    -1.5620 C.3   1 <1>   0.0400 
 14 C       -6.3670    -3.9150    -0.1330 C.3   1 <1>   0.1960 
 15 C       -5.5910    -5.6240     1.5650 C.3   1 <1>  -0.1600 
 16 N       -7.5050    -4.7850    -0.4570 N.am  1 <1>  -0.8490 
 17 C       -6.8290    -6.4590     1.2080 C.3   1 <1>  -0.1600 
 18 S       -8.7350    -4.0240    -1.3390 S.o2  1 <1>   1.3330 
 19 C       -7.9710    -5.5860     0.6770 C.3   1 <1>   0.1960 
 20 O       -8.1220    -3.3330    -2.4480 O.2   1 <1>  -0.6500 
 21 O       -9.7850    -4.9900    -1.5630 O.2   1 <1>  -0.6500 
 22 C       -9.3760    -2.7880    -0.2240 C.3   1 <1>  -0.1350 
 23 H       -2.0680    -1.8830     1.5870 H     1 <1>   0.1500 
 24 H        2.0660    -2.1190     0.6710 H     1 <1>   0.1500 
 25 H        1.7080    -4.2030    -0.5630 H     1 <1>   0.1500 
 26 H       -2.7280    -5.0450    -0.2650 H     1 <1>   0.3700 
 27 H       -4.8750    -5.3870    -0.4430 H     1 <1>   0.0800 
 28 H       -0.1380    -6.9710    -2.0280 H     1 <1>   0.0800 
 29 H        1.0600    -6.4320    -0.8580 H     1 <1>   0.0800 
 30 H        0.7370    -5.4720    -2.3150 H     1 <1>   0.0800 
 31 H       -6.0610    -3.3720    -1.0130 H     1 <1>   0.0800 
 32 H       -6.6550    -3.2010     0.6210 H     1 <1>   0.0800 
 33 H       -5.8160    -4.9930     2.4080 H     1 <1>   0.0800 
 34 H       -4.7790    -6.2730     1.8430 H     1 <1>   0.0800 
 35 H       -7.1670    -6.9970     2.0760 H     1 <1>   0.0800 
 36 H       -6.5750    -7.1840     0.4540 H     1 <1>   0.0800 
 37 H       -8.7790    -6.2270     0.3620 H     1 <1>   0.0800 
 38 H       -8.3330    -4.9420     1.4610 H     1 <1>   0.0800 
 39 H       -8.6120    -2.0850     0.0390 H     1 <1>   0.0800 
 40 H       -9.7590    -3.2450     0.6660 H     1 <1>   0.0800 
 41 H      -10.1750    -2.2550    -0.7010 H     1 <1>   0.0800 
@<TRIPOS>BOND
  1   1   2  1   
  2   2   3  ar  
  3   2   4  ar  
  4   3   5  ar  
  5   3  23  1   
  6   4   6  ar  
  7   4  24  1   
  8   5   7  1   
  9   5   8  ar  
 10   6   8  ar  
 11   6  25  1   
 12   7   9  am  
 13   7  26  1   
 14   8  10  1   
 15   9  11  2   
 16   9  12  1   
 17  10  13  1   
 18  12  14  1   
 19  12  15  1   
 20  12  27  1   
 21  13  28  1   
 22  13  29  1   
 23  13  30  1   
 24  14  16  1   
 25  14  31  1   
 26  14  32  1   
 27  15  17  1   
 28  15  33  1   
 29  15  34  1   
 30  16  18  am  
 31  16  19  1   
 32  17  19  1   
 33  17  35  1   
 34  17  36  1   
 35  18  20  2   
 36  18  21  2   
 37  18  22  1   
 38  19  37  1   
 39  19  38  1   
 40  22  39  1   
 41  22  40  1   
 42  22  41  1   
@<TRIPOS>SUBSTRUCTURE
  1 ****   9 GROUP 4 **** **** 0

# MOE 2024.06 (io_trps.svl 2023.06)
