@<TRIPOS>MOLECULE
N-Methyl-2-[2-methyl-4-(piperidine-1-sulfonyl)-phenoxy]-acetamide
44 45 1 0 0 
SMALL
USER_CHARGES


@<TRIPOS>ATOM
  1 S       -0.5400     0.5470    -1.2990 S.o2  1 <1>   1.4470 
  2 O       -0.4410    -0.1860    -2.5430 O.2   1 <1>  -0.6500 
  3 O       -1.4510     1.6690    -1.2050 O.2   1 <1>  -0.6500 
  4 N       -0.9930    -0.5580    -0.0950 N.am  1 <1>  -0.8490 
  5 C        1.1240     1.0440    -0.7830 C.ar  1 <1>  -0.0090 
  6 C       -2.1440    -1.3610    -0.5200 C.3   1 <1>   0.1960 
  7 C       -1.2630     0.1070     1.1850 C.3   1 <1>   0.1960 
  8 C        1.4550     2.3800    -0.5950 C.ar  1 <1>  -0.1500 
  9 C        2.1110     0.0920    -0.5620 C.ar  1 <1>  -0.1500 
 10 C       -2.4450    -2.4510     0.5140 C.3   1 <1>  -0.1600 
 11 C       -1.5170    -0.9340     2.2790 C.3   1 <1>  -0.1600 
 12 C        2.7250     2.7650    -0.1950 C.ar  1 <1>  -0.1430 
 13 C        3.3840     0.4540    -0.1640 C.ar  1 <1>  -0.1500 
 14 C       -2.6830    -1.8570     1.9070 C.3   1 <1>  -0.1600 
 15 C        3.6990     1.7970     0.0220 C.ar  1 <1>   0.0830 
 16 C        3.0370     4.2430    -0.0020 C.3   1 <1>  -0.0970 
 17 O        4.9280     2.2170     0.4090 O.3   1 <1>  -0.3630 
 18 C        6.0050     1.3070     0.6010 C.3   1 <1>   0.1810 
 19 C        7.2810     2.0390     0.9930 C.2   1 <1>   0.5690 
 20 O        8.2740     1.3880     1.2130 O.2   1 <1>  -0.5700 
 21 N        7.2680     3.3970     1.0830 N.am  1 <1>  -0.7300 
 22 C        8.4170     4.2580     1.4500 C.3   1 <1>   0.0600 
 23 H       -1.9300    -1.8350    -1.4640 H     1 <1>   0.0800 
 24 H       -3.0050    -0.7250    -0.6520 H     1 <1>   0.0800 
 25 H       -2.1210     0.7530     1.0920 H     1 <1>   0.0800 
 26 H       -0.4170     0.7100     1.4680 H     1 <1>   0.0800 
 27 H        0.6990     3.1280    -0.7660 H     1 <1>   0.1500 
 28 H        1.8710    -0.9490    -0.7050 H     1 <1>   0.1500 
 29 H       -1.6130    -3.1330     0.5460 H     1 <1>   0.0800 
 30 H       -3.3130    -3.0060     0.2040 H     1 <1>   0.0800 
 31 H       -1.7340    -0.4330     3.2060 H     1 <1>   0.0800 
 32 H       -0.6220    -1.5150     2.4200 H     1 <1>   0.0800 
 33 H        4.1070    -0.3230    -0.0070 H     1 <1>   0.1500 
 34 H       -2.7770    -2.6460     2.6340 H     1 <1>   0.0800 
 35 H       -3.6000    -1.2930     1.9040 H     1 <1>   0.0800 
 36 H        2.1760     4.8530    -0.2050 H     1 <1>   0.0800 
 37 H        3.8290     4.5370    -0.6670 H     1 <1>   0.0800 
 38 H        3.3510     4.4190     1.0120 H     1 <1>   0.0800 
 39 H        6.1710     0.7760    -0.3180 H     1 <1>   0.0800 
 40 H        5.7360     0.6210     1.3830 H     1 <1>   0.0800 
 41 H        6.3780     3.8640     0.8810 H     1 <1>   0.3700 
 42 H        9.2900     3.6550     1.6400 H     1 <1>   0.0800 
 43 H        8.1830     4.8190     2.3390 H     1 <1>   0.0800 
 44 H        8.6330     4.9390     0.6460 H     1 <1>   0.0800 
@<TRIPOS>BOND
  1   1   2  2   
  2   1   3  2   
  3   1   4  am  
  4   1   5  1   
  5   4   6  1   
  6   4   7  1   
  7   5   8  ar  
  8   5   9  ar  
  9   6  10  1   
 10   6  23  1   
 11   6  24  1   
 12   7  11  1   
 13   7  25  1   
 14   7  26  1   
 15   8  12  ar  
 16   8  27  1   
 17   9  13  ar  
 18   9  28  1   
 19  10  14  1   
 20  10  29  1   
 21  10  30  1   
 22  11  14  1   
 23  11  31  1   
 24  11  32  1   
 25  12  15  ar  
 26  12  16  1   
 27  13  15  ar  
 28  13  33  1   
 29  14  34  1   
 30  14  35  1   
 31  15  17  1   
 32  16  36  1   
 33  16  37  1   
 34  16  38  1   
 35  17  18  1   
 36  18  19  1   
 37  18  39  1   
 38  18  40  1   
 39  19  20  2   
 40  19  21  am  
 41  21  22  1   
 42  21  41  1   
 43  22  42  1   
 44  22  43  1   
 45  22  44  1   
@<TRIPOS>SUBSTRUCTURE
  1 ****   9 GROUP 4 **** **** 0

# MOE 2024.06 (io_trps.svl 2023.06)
