@<TRIPOS>MOLECULE
N-[2-(2-Oxo-2-piperidin-1-yl-ethylsulfanyl)-benzothiazol-6-yl]-acetamide
42 44 1 0 0 
SMALL
USER_CHARGES


@<TRIPOS>ATOM
  1 S        0.8070    -1.3670     1.8450 S.3   1 <1>  -0.0800 
  2 C        1.7300    -1.9980     0.4910 C.2   1 <1>   0.4340 
  3 C       -0.5280    -1.0890     0.7420 C.ar  1 <1>   0.0400 
  4 S        3.3850    -2.5310     0.8740 S.3   1 <1>  -0.2860 
  5 N        1.1480    -2.0170    -0.6350 N.2   1 <1>  -0.5650 
  6 C       -0.1380    -1.5010    -0.5210 C.ar  1 <1>   0.2270 
  7 C       -1.7710    -0.5580     1.0230 C.ar  1 <1>  -0.1500 
  8 C        4.1640    -2.8300    -0.7900 C.3   1 <1>   0.1310 
  9 C       -1.0500    -1.3640    -1.5560 C.ar  1 <1>  -0.1500 
 10 C       -2.6860    -0.4270    -0.0150 C.ar  1 <1>   0.1170 
 11 C        4.0900    -1.6180    -1.7160 C.2   1 <1>   0.5690 
 12 C       -2.3040    -0.8330    -1.3020 C.ar  1 <1>  -0.1500 
 13 N       -3.9470     0.1190     0.2700 N.am  1 <1>  -0.5470 
 14 O        3.6760    -1.8240    -2.8340 O.2   1 <1>  -0.5700 
 15 N        4.5100    -0.3640    -1.3320 N.am  1 <1>  -0.6600 
 16 C       -5.1330     0.0420    -0.4030 C.2   1 <1>   0.5690 
 17 C        4.1470     0.8350    -2.1380 C.3   1 <1>   0.1400 
 18 C        5.3260    -0.0470    -0.1270 C.3   1 <1>   0.1400 
 19 O       -5.2980    -0.5800    -1.4210 O.2   1 <1>  -0.5700 
 20 C       -6.3080     0.7790     0.1860 C.3   1 <1>  -0.1790 
 21 C        3.3590     1.8150    -1.2610 C.3   1 <1>  -0.1600 
 22 C        4.5600     0.9280     0.7740 C.3   1 <1>  -0.1600 
 23 C        4.1360     2.1900     0.0090 C.3   1 <1>  -0.1600 
 24 H       -2.0150    -0.2610     2.0260 H     1 <1>   0.1500 
 25 H        3.6340    -3.6540    -1.2300 H     1 <1>   0.0800 
 26 H        5.1860    -3.1070    -0.6200 H     1 <1>   0.0800 
 27 H       -0.7640    -1.6730    -2.5460 H     1 <1>   0.1500 
 28 H       -2.9940    -0.7300    -2.1190 H     1 <1>   0.1500 
 29 H       -3.9950     0.6310     1.1480 H     1 <1>   0.3700 
 30 H        3.5480     0.5570    -2.9880 H     1 <1>   0.0800 
 31 H        5.0470     1.3020    -2.5010 H     1 <1>   0.0800 
 32 H        6.2470     0.4100    -0.4470 H     1 <1>   0.0800 
 33 H        5.5780    -0.9380     0.4190 H     1 <1>   0.0800 
 34 H       -6.0770     1.8230     0.2790 H     1 <1>   0.0800 
 35 H       -6.5480     0.3730     1.1510 H     1 <1>   0.0800 
 36 H       -7.1630     0.6700    -0.4570 H     1 <1>   0.0800 
 37 H        2.4220     1.3570    -0.9940 H     1 <1>   0.0800 
 38 H        3.1410     2.7020    -1.8290 H     1 <1>   0.0800 
 39 H        5.1800     1.2030     1.6090 H     1 <1>   0.0800 
 40 H        3.6880     0.4350     1.1650 H     1 <1>   0.0800 
 41 H        3.5240     2.8110     0.6400 H     1 <1>   0.0800 
 42 H        5.0120     2.7540    -0.2640 H     1 <1>   0.0800 
@<TRIPOS>BOND
  1   1   2  1   
  2   1   3  1   
  3   2   4  1   
  4   2   5  2   
  5   3   6  ar  
  6   3   7  ar  
  7   4   8  1   
  8   5   6  1   
  9   6   9  ar  
 10   7  10  ar  
 11   7  24  1   
 12   8  11  1   
 13   8  25  1   
 14   8  26  1   
 15   9  12  ar  
 16   9  27  1   
 17  10  12  ar  
 18  10  13  1   
 19  11  14  2   
 20  11  15  am  
 21  12  28  1   
 22  13  16  am  
 23  13  29  1   
 24  15  17  1   
 25  15  18  1   
 26  16  19  2   
 27  16  20  1   
 28  17  21  1   
 29  17  30  1   
 30  17  31  1   
 31  18  22  1   
 32  18  32  1   
 33  18  33  1   
 34  20  34  1   
 35  20  35  1   
 36  20  36  1   
 37  21  23  1   
 38  21  37  1   
 39  21  38  1   
 40  22  23  1   
 41  22  39  1   
 42  22  40  1   
 43  23  41  1   
 44  23  42  1   
@<TRIPOS>SUBSTRUCTURE
  1 ****   6 GROUP 4 **** **** 0

# MOE 2024.06 (io_trps.svl 2023.06)
