@<TRIPOS>MOLECULE
Morpholine-4-sulfonic acid pyridin-3-ylamide
29 30 1 0 0 
SMALL
USER_CHARGES


@<TRIPOS>ATOM
  1 S       -0.4520     0.4850     1.2210 S.o2  1 <1>   1.5760 
  2 O       -1.1250     1.7520     1.3480 O.2   1 <1>  -0.6500 
  3 O        0.1400    -0.1910     2.3480 O.2   1 <1>  -0.6500 
  4 N        0.6750     0.6060    -0.0250 N.am  1 <1>  -0.8490 
  5 N       -1.5830    -0.5410     0.4560 N.am  1 <1>  -0.7570 
  6 C        1.4850     1.8250     0.0770 C.3   1 <1>   0.1960 
  7 C        1.5320    -0.5920    -0.1910 C.3   1 <1>   0.1960 
  8 C       -1.4240    -1.8950     0.1810 C.ar  1 <1>   0.1990 
  9 C        2.4230     1.9930    -1.1410 C.3   1 <1>   0.1200 
 10 C        2.9170    -0.2940    -0.8090 C.3   1 <1>   0.1200 
 11 C       -0.8910    -2.8150     1.0900 C.ar  1 <1>   0.1600 
 12 C       -1.7990    -2.3730    -1.0630 C.ar  1 <1>  -0.1500 
 13 O        2.8480     0.7760    -1.7030 O.3   1 <1>  -0.5600 
 14 N       -0.6850    -4.1030     0.8510 N.ar  1 <1>  -0.6200 
 15 C       -1.6040    -3.7110    -1.3260 C.ar  1 <1>  -0.1500 
 16 C       -1.0490    -4.5220    -0.3510 C.ar  1 <1>   0.1600 
 17 H       -2.0890     0.0240    -0.2150 H     1 <1>   0.4200 
 18 H        2.0740     1.7910     0.9790 H     1 <1>   0.0800 
 19 H        0.8490     2.6920     0.1390 H     1 <1>   0.0800 
 20 H        1.0220    -1.2910    -0.8300 H     1 <1>   0.0800 
 21 H        1.6980    -1.0850     0.7510 H     1 <1>   0.0800 
 22 H        3.2950     2.5560    -0.8600 H     1 <1>   0.0800 
 23 H        1.9100     2.5330    -1.9170 H     1 <1>   0.0800 
 24 H        3.2780    -1.1540    -1.3440 H     1 <1>   0.0800 
 25 H        3.6280    -0.0480    -0.0400 H     1 <1>   0.0800 
 26 H       -0.6230    -2.4660     2.0700 H     1 <1>   0.1500 
 27 H       -2.2240    -1.7180    -1.8020 H     1 <1>   0.1500 
 28 H       -1.8780    -4.1280    -2.2780 H     1 <1>   0.1500 
 29 H       -0.8970    -5.5670    -0.5680 H     1 <1>   0.1500 
@<TRIPOS>BOND
  1   1   2  2   
  2   1   3  2   
  3   1   4  am  
  4   1   5  am  
  5   4   6  1   
  6   4   7  1   
  7   5   8  1   
  8   5  17  1   
  9   6   9  1   
 10   6  18  1   
 11   6  19  1   
 12   7  10  1   
 13   7  20  1   
 14   7  21  1   
 15   8  11  ar  
 16   8  12  ar  
 17   9  13  1   
 18   9  22  1   
 19   9  23  1   
 20  10  13  1   
 21  10  24  1   
 22  10  25  1   
 23  11  14  ar  
 24  11  26  1   
 25  12  15  ar  
 26  12  27  1   
 27  14  16  ar  
 28  15  16  ar  
 29  15  28  1   
 30  16  29  1   
@<TRIPOS>SUBSTRUCTURE
  1 ****   7 GROUP 4 **** **** 0

# MOE 2024.06 (io_trps.svl 2023.06)
