@<TRIPOS>MOLECULE
N-(1-Methyl-5-p-tolyl-1H-imidazol-2-yl)-4-oxo-4-piperidin-1-yl-butyramide
53 55 1 0 0 
SMALL
USER_CHARGES


@<TRIPOS>ATOM
  1 O       -0.0020     3.6080    -1.2150 O.2   1 <1>  -0.5740 
  2 C       -0.5680     2.9120    -0.4050 C.2   1 <1>   0.5650 
  3 N       -0.6200     1.5510    -0.5380 N.am  1 <1>  -0.6640 
  4 C       -1.0970     3.6440     0.8150 C.3   1 <1>  -0.1060 
  5 C       -0.3270     0.8990    -1.8480 C.3   1 <1>   0.1330 
  6 C       -1.1250     0.5790     0.4780 C.3   1 <1>   0.1330 
  7 C        0.0650     4.1190     1.7090 C.3   1 <1>  -0.1060 
  8 C       -1.6080     0.2590    -2.3940 C.3   1 <1>  -0.1670 
  9 C       -2.4270    -0.0500    -0.0240 C.3   1 <1>  -0.1670 
 10 C        1.0420     2.9990     2.0370 C.2   1 <1>   0.8500 
 11 C       -2.2300    -0.7220    -1.3900 C.3   1 <1>  -0.1670 
 12 O        0.7020     2.1390     2.7950 O.2   1 <1>  -0.5740 
 13 N        2.3040     2.9310     1.5630 N.pl3 1 <1>  -0.7330 
 14 C        3.0020     3.6470     0.6880 C.cat 1 <1>   1.0690 
 15 N        2.5560     4.1900    -0.4260 N.pl3 1 <1>  -0.7030 
 16 N        4.3040     3.8850     0.8150 N.pl3 1 <1>  -0.7670 
 17 C        3.6030     4.8090    -1.0530 C.2   1 <1>   0.1940 
 18 C        4.7060     4.6290    -0.2910 C.2   1 <1>   0.3030 
 19 C        5.2280     3.5420     1.9330 C.3   1 <1>   0.2680 
 20 C        6.0560     5.0860    -0.5100 C.ar  1 <1>   0.0340 
 21 C        7.0860     4.1860    -0.7730 C.ar  1 <1>  -0.1570 
 22 C        6.3680     6.4420    -0.4580 C.ar  1 <1>  -0.1570 
 23 C        8.3820     4.6250    -0.9720 C.ar  1 <1>  -0.1570 
 24 C        7.6630     6.8820    -0.6570 C.ar  1 <1>  -0.1570 
 25 C        8.6770     5.9760    -0.9150 C.ar  1 <1>  -0.1500 
 26 C       10.1000     6.4600    -1.1320 C.3   1 <1>  -0.1040 
 27 H       -1.7800     3.0360     1.3750 H     1 <1>   0.0730 
 28 H       -1.6550     4.4990     0.4780 H     1 <1>   0.0730 
 29 H        0.4260     0.1430    -1.7060 H     1 <1>   0.0730 
 30 H        0.0450     1.6140    -2.5610 H     1 <1>   0.0730 
 31 H       -1.2840     1.0360     1.4360 H     1 <1>   0.0730 
 32 H       -0.3880    -0.1950     0.6130 H     1 <1>   0.0730 
 33 H       -0.3420     4.4910     2.6320 H     1 <1>   0.0730 
 34 H        0.5730     4.9370     1.2360 H     1 <1>   0.0730 
 35 H       -1.3840    -0.2580    -3.3100 H     1 <1>   0.0730 
 36 H       -2.3140     1.0380    -2.6240 H     1 <1>   0.0730 
 37 H       -3.1820     0.7140    -0.0990 H     1 <1>   0.0730 
 38 H       -2.7690    -0.7790     0.6890 H     1 <1>   0.0730 
 39 H       -1.5810    -1.5730    -1.2770 H     1 <1>   0.0730 
 40 H       -3.1760    -1.0750    -1.7630 H     1 <1>   0.0730 
 41 H        2.8040     2.1660     1.9940 H     1 <1>   0.4450 
 42 H        1.6020     4.0780    -0.8120 H     1 <1>   0.4450 
 43 H        3.5110     5.3280    -1.9950 H     1 <1>   0.1430 
 44 H        4.6830     3.2040     2.7970 H     1 <1>   0.0730 
 45 H        5.8020     4.4100     2.2130 H     1 <1>   0.0730 
 46 H        5.9090     2.7670     1.6210 H     1 <1>   0.0730 
 47 H        6.8780     3.1320    -0.8290 H     1 <1>   0.1430 
 48 H        5.5970     7.1660    -0.2570 H     1 <1>   0.1430 
 49 H        9.1650     3.9140    -1.1740 H     1 <1>   0.1430 
 50 H        7.8840     7.9350    -0.6100 H     1 <1>   0.1430 
 51 H       10.6300     5.7930    -1.7870 H     1 <1>   0.0730 
 52 H       10.6170     6.5060    -0.1900 H     1 <1>   0.0730 
 53 H       10.1010     7.4400    -1.5760 H     1 <1>   0.0730 
@<TRIPOS>BOND
  1   1   2  2   
  2   2   3  am  
  3   2   4  1   
  4   3   5  1   
  5   3   6  1   
  6   4   7  1   
  7   4  27  1   
  8   4  28  1   
  9   5   8  1   
 10   5  29  1   
 11   5  30  1   
 12   6   9  1   
 13   6  31  1   
 14   6  32  1   
 15   7  10  1   
 16   7  33  1   
 17   7  34  1   
 18   8  11  1   
 19   8  35  1   
 20   8  36  1   
 21   9  11  1   
 22   9  37  1   
 23   9  38  1   
 24  10  12  2   
 25  10  13  1   
 26  11  39  1   
 27  11  40  1   
 28  13  14  ar  
 29  13  41  1   
 30  14  15  ar  
 31  14  16  ar  
 32  15  17  1   
 33  15  42  1   
 34  16  18  1   
 35  16  19  1   
 36  17  18  2   
 37  17  43  1   
 38  18  20  1   
 39  19  44  1   
 40  19  45  1   
 41  19  46  1   
 42  20  21  ar  
 43  20  22  ar  
 44  21  23  ar  
 45  21  47  1   
 46  22  24  ar  
 47  22  48  1   
 48  23  25  ar  
 49  23  49  1   
 50  24  25  ar  
 51  24  50  1   
 52  25  26  1   
 53  26  51  1   
 54  26  52  1   
 55  26  53  1   
@<TRIPOS>SUBSTRUCTURE
  1 ****  14 GROUP 4 **** **** 0

# MOE 2024.06 (io_trps.svl 2023.06)
