@<TRIPOS>MOLECULE
1,7-Dimethyl-3-(2-piperidin-1-yl-ethyl)-8-(tetrahydro-furan-2-ylmethyl)-1H,8H-im
62 66 1 0 0 
SMALL
USER_CHARGES


@<TRIPOS>ATOM
  1 O        1.2980     0.0290     0.8390 O.2   1 <1>  -0.5740 
  2 C        2.1520     0.8820     0.9610 C.2   1 <1>   0.6870 
  3 N        1.7640     2.2120     1.0480 N.am  1 <1>  -0.4250 
  4 N        3.4980     0.5460     0.9740 N.am  1 <1>  -0.4400 
  5 C        2.6980     3.2370     0.9880 C.2   1 <1>   0.7000 
  6 C        0.3090     2.5260     1.2080 C.3   1 <1>   0.1340 
  7 C        4.4250     1.5710     0.9790 C.2   1 <1>   0.4220 
  8 C        3.9370    -0.8810     0.9530 C.3   1 <1>   0.0540 
  9 O        2.3200     4.3940     0.9150 O.2   1 <1>  -0.5740 
 10 C        4.0800     2.8830     0.9770 C.2   1 <1>   0.2720 
 11 C       -0.4210     2.3820    -0.1390 C.3   1 <1>   0.3380 
 12 N        5.7820     1.4700     0.9470 N.pl3 1 <1>  -0.7030 
 13 N        5.2830     3.6080     0.9290 N.pl3 1 <1>  -0.6320 
 14 N       -1.8960     2.5920    -0.0260 N.4   1 <1>  -0.9610 
 15 C        6.2630     2.7120     0.9030 C.cat 1 <1>   1.0690 
 16 C        5.8820     4.8510     0.8600 C.2   1 <1>   0.2240 
 17 C       -2.5660     2.1470    -1.2820 C.3   1 <1>   0.3380 
 18 C       -2.2570     4.0060     0.3000 C.3   1 <1>   0.3380 
 19 N        7.4680     3.2910     0.8240 N.pl3 1 <1>  -0.5710 
 20 C        7.2190     4.6570     0.7980 C.2   1 <1>   0.1590 
 21 C       -4.0840     2.2110    -1.1060 C.3   1 <1>  -0.1660 
 22 C       -3.7670     4.1150     0.5130 C.3   1 <1>  -0.1660 
 23 C        8.7970     2.6010     0.8500 C.3   1 <1>   0.1620 
 24 C        8.3260     5.6920     0.7140 C.3   1 <1>  -0.1080 
 25 C       -4.5490     3.6170    -0.7080 C.3   1 <1>  -0.1660 
 26 C        8.9760     1.5640    -0.2760 C.3   1 <1>   0.1940 
 27 O        8.0330     0.5400    -0.1740 O.3   1 <1>  -0.5640 
 28 C       10.3150     0.8410    -0.2250 C.3   1 <1>  -0.1660 
 29 C        8.4840    -0.5790    -0.8750 C.3   1 <1>   0.1140 
 30 C       10.0080    -0.5050    -0.8610 C.3   1 <1>  -0.1660 
 31 H        0.1860     3.5230     1.5930 H     1 <1>   0.0740 
 32 H       -0.1160     1.8390     1.9200 H     1 <1>   0.0740 
 33 H        3.1450    -1.5270     1.2920 H     1 <1>   0.0740 
 34 H        4.7840    -1.0210     1.6020 H     1 <1>   0.0740 
 35 H        4.2060    -1.1640    -0.0500 H     1 <1>   0.0740 
 36 H       -0.2410     1.3870    -0.5130 H     1 <1>   0.0740 
 37 H       -0.0120     3.0890    -0.8420 H     1 <1>   0.0740 
 38 H        6.4050     0.6830     0.7170 H     1 <1>   0.4460 
 39 H       -2.2720     1.9950     0.7230 H     1 <1>   0.4460 
 40 H        5.3150     5.7710     0.8610 H     1 <1>   0.1440 
 41 H       -2.2760     1.1350    -1.5170 H     1 <1>   0.0740 
 42 H       -2.2710     2.7850    -2.0990 H     1 <1>   0.0740 
 43 H       -1.9600     4.6540    -0.5090 H     1 <1>   0.0740 
 44 H       -1.7490     4.3260     1.1950 H     1 <1>   0.0740 
 45 H       -4.3890     1.4980    -0.3600 H     1 <1>   0.0740 
 46 H       -4.5560     1.9300    -2.0310 H     1 <1>   0.0740 
 47 H       -4.0220     5.1440     0.7020 H     1 <1>   0.0740 
 48 H       -4.0480     3.5500     1.3850 H     1 <1>   0.0740 
 49 H        8.9230     2.1130     1.8010 H     1 <1>   0.0740 
 50 H        9.5810     3.3320     0.7600 H     1 <1>   0.0740 
 51 H        8.9790     5.6100     1.5640 H     1 <1>   0.0740 
 52 H        7.9100     6.6850     0.7000 H     1 <1>   0.0740 
 53 H        8.8990     5.5510    -0.1850 H     1 <1>   0.0740 
 54 H       -5.6040     3.6060    -0.4890 H     1 <1>   0.0740 
 55 H       -4.3930     4.2930    -1.5330 H     1 <1>   0.0740 
 56 H        8.8540     2.0300    -1.2400 H     1 <1>   0.0740 
 57 H       10.6280     0.7000     0.7950 H     1 <1>   0.0740 
 58 H       11.0810     1.3780    -0.7570 H     1 <1>   0.0740 
 59 H        8.1050    -0.5250    -1.8820 H     1 <1>   0.0740 
 60 H        8.1190    -1.4690    -0.3910 H     1 <1>   0.0740 
 61 H       10.4300    -1.3150    -0.2910 H     1 <1>   0.0740 
 62 H       10.3850    -0.5580    -1.8670 H     1 <1>   0.0740 
@<TRIPOS>BOND
  1   1   2  2   
  2   2   3  am  
  3   2   4  am  
  4   3   5  am  
  5   3   6  1   
  6   4   7  1   
  7   4   8  1   
  8   5   9  2   
  9   5  10  1   
 10   6  11  1   
 11   6  31  1   
 12   6  32  1   
 13   7  10  2   
 14   7  12  1   
 15   8  33  1   
 16   8  34  1   
 17   8  35  1   
 18  10  13  1   
 19  11  14  1   
 20  11  36  1   
 21  11  37  1   
 22  12  15  ar  
 23  12  38  1   
 24  13  15  ar  
 25  13  16  1   
 26  14  17  1   
 27  14  18  1   
 28  14  39  1   
 29  15  19  ar  
 30  16  20  2   
 31  16  40  1   
 32  17  21  1   
 33  17  41  1   
 34  17  42  1   
 35  18  22  1   
 36  18  43  1   
 37  18  44  1   
 38  19  20  1   
 39  19  23  1   
 40  20  24  1   
 41  21  25  1   
 42  21  45  1   
 43  21  46  1   
 44  22  25  1   
 45  22  47  1   
 46  22  48  1   
 47  23  26  1   
 48  23  49  1   
 49  23  50  1   
 50  24  51  1   
 51  24  52  1   
 52  24  53  1   
 53  25  54  1   
 54  25  55  1   
 55  26  27  1   
 56  26  28  1   
 57  26  56  1   
 58  27  29  1   
 59  28  30  1   
 60  28  57  1   
 61  28  58  1   
 62  29  30  1   
 63  29  59  1   
 64  29  60  1   
 65  30  61  1   
 66  30  62  1   
@<TRIPOS>SUBSTRUCTURE
  1 ****  10 GROUP 4 **** **** 0

# MOE 2024.06 (io_trps.svl 2023.06)
