@<TRIPOS>MOLECULE
2-(2-Chloro-phenyl)-2-pyrrolidin-1-yl-ethylamine
34 35 1 0 0 
SMALL
USER_CHARGES


@<TRIPOS>ATOM
  1 CL      -0.4020     1.7860     2.9320 Cl    1 <1>  -0.1770 
  2 C       -1.4440     1.6630     1.5380 C.ar  1 <1>   0.1770 
  3 C       -1.1190     2.3520     0.3770 C.ar  1 <1>  -0.1440 
  4 C       -2.5730     0.8730     1.6250 C.ar  1 <1>  -0.1500 
  5 C       -1.9710     2.2360    -0.7190 C.ar  1 <1>  -0.1500 
  6 C        0.1510     3.1900     0.3550 C.3   1 <1>   0.5660 
  7 C       -3.4060     0.7630     0.5280 C.ar  1 <1>  -0.1500 
  8 C       -3.1050     1.4440    -0.6390 C.ar  1 <1>  -0.1500 
  9 N       -0.2270     4.6310     0.5460 N.4   1 <1>  -0.9590 
 10 C        1.0060     2.8530    -0.9140 C.3   1 <1>   0.3430 
 11 C       -1.0150     5.3090    -0.5200 C.3   1 <1>   0.3430 
 12 C        0.8850     5.5550     0.9050 C.3   1 <1>   0.3430 
 13 N        1.2340     1.3750    -1.1600 N.4   1 <1>  -0.8530 
 14 C       -0.9440     6.7840    -0.1560 C.3   1 <1>  -0.1600 
 15 C        0.2890     6.9460     0.7380 C.3   1 <1>  -0.1600 
 16 H       -2.8010     0.3490     2.5390 H     1 <1>   0.1500 
 17 H       -1.7900     2.7490    -1.6490 H     1 <1>   0.1500 
 18 H        0.7530     2.9080     1.2030 H     1 <1>   0.0800 
 19 H       -4.2930     0.1500     0.5830 H     1 <1>   0.1500 
 20 H       -3.7690     1.3540    -1.4850 H     1 <1>   0.1500 
 21 H       -0.8520     4.6400     1.3690 H     1 <1>   0.4500 
 22 H        1.9610     3.3460    -0.8250 H     1 <1>   0.0800 
 23 H        0.5010     3.2650    -1.7720 H     1 <1>   0.0800 
 24 H       -2.0370     4.9620    -0.5470 H     1 <1>   0.0800 
 25 H       -0.5560     5.1600    -1.4840 H     1 <1>   0.0800 
 26 H        1.7090     5.4390     0.2200 H     1 <1>   0.0800 
 27 H        1.2310     5.3970     1.9150 H     1 <1>   0.0800 
 28 H        1.8010     0.9210    -0.4280 H     1 <1>   0.4500 
 29 H        1.7310     1.2120    -2.0490 H     1 <1>   0.4500 
 30 H        0.3480     0.8480    -1.2220 H     1 <1>   0.4500 
 31 H       -1.8330     7.0700     0.3800 H     1 <1>   0.0800 
 32 H       -0.8780     7.3920    -1.0430 H     1 <1>   0.0800 
 33 H        1.0120     7.6150     0.3020 H     1 <1>   0.0800 
 34 H        0.0060     7.3420     1.6990 H     1 <1>   0.0800 
@<TRIPOS>BOND
  1   1   2  1   
  2   2   3  ar  
  3   2   4  ar  
  4   3   5  ar  
  5   3   6  1   
  6   4   7  ar  
  7   4  16  1   
  8   5   8  ar  
  9   5  17  1   
 10   6   9  1   
 11   6  10  1   
 12   6  18  1   
 13   7   8  ar  
 14   7  19  1   
 15   8  20  1   
 16   9  11  1   
 17   9  12  1   
 18   9  21  1   
 19  10  13  1   
 20  10  22  1   
 21  10  23  1   
 22  11  14  1   
 23  11  24  1   
 24  11  25  1   
 25  12  15  1   
 26  12  26  1   
 27  12  27  1   
 28  13  28  1   
 29  13  29  1   
 30  13  30  1   
 31  14  15  1   
 32  14  31  1   
 33  14  32  1   
 34  15  33  1   
 35  15  34  1   
@<TRIPOS>SUBSTRUCTURE
  1 ****   3 GROUP 4 **** **** 0

# MOE 2024.06 (io_trps.svl 2023.06)
