@<TRIPOS>MOLECULE
2-(4-Cyclopentylsulfamoyl-phenoxy)-N-pyridin-4-ylmethyl-acetamide
50 52 1 0 0 
SMALL
USER_CHARGES


@<TRIPOS>ATOM
  1 S        0.3350    -1.0040     1.1760 S.o2  1 <1>   1.4470 
  2 O        0.2360    -0.7400     2.5950 O.2   1 <1>  -0.6500 
  3 O        0.0930    -2.3390     0.6860 O.2   1 <1>  -0.6500 
  4 N       -0.8350    -0.0870     0.4030 N.am  1 <1>  -0.9140 
  5 C        1.8950    -0.3760     0.5040 C.ar  1 <1>  -0.0090 
  6 C       -1.3310     1.0650     1.1360 C.3   1 <1>   0.2760 
  7 C        2.0420    -0.1410    -0.8590 C.ar  1 <1>  -0.1500 
  8 C        2.9830    -0.1180     1.3300 C.ar  1 <1>  -0.1500 
  9 C       -2.5160     1.6350     0.3630 C.3   1 <1>  -0.1600 
 10 C       -0.3310     2.2190     1.0950 C.3   1 <1>  -0.1600 
 11 C        3.2260     0.3410    -1.3860 C.ar  1 <1>  -0.1500 
 12 C        4.1730     0.3640     0.8140 C.ar  1 <1>  -0.1500 
 13 C       -1.9150     2.5110    -0.7440 C.3   1 <1>  -0.1600 
 14 C       -0.4920     2.8580    -0.2870 C.3   1 <1>  -0.1600 
 15 C        4.3030     0.5980    -0.5440 C.ar  1 <1>   0.0820 
 16 O        5.4960     1.0700    -0.9690 O.3   1 <1>  -0.3620 
 17 C        5.7300     1.3670    -2.3400 C.3   1 <1>   0.1810 
 18 C        7.1500     1.8740    -2.5540 C.2   1 <1>   0.5690 
 19 O        7.4620     2.2870    -3.6450 O.2   1 <1>  -0.5700 
 20 N        8.0310     1.8470    -1.5250 N.am  1 <1>  -0.7300 
 21 C        9.4110     2.3510    -1.5730 C.3   1 <1>   0.2840 
 22 C        9.7800     2.8530    -0.1900 C.ar  1 <1>  -0.1430 
 23 C        9.3180     4.0640     0.2860 C.ar  1 <1>  -0.1500 
 24 C       10.5870     2.1290     0.6650 C.ar  1 <1>  -0.1500 
 25 C        9.6770     4.4820     1.5570 C.ar  1 <1>   0.1600 
 26 C       10.8860     2.6380     1.9180 C.ar  1 <1>   0.1600 
 27 N       10.4500     3.7970     2.3840 N.ar  1 <1>  -0.6200 
 28 H       -1.6060    -0.7410     0.3050 H     1 <1>   0.4200 
 29 H       -1.6140     0.7980     2.1420 H     1 <1>   0.0800 
 30 H        1.2100    -0.3390    -1.5150 H     1 <1>   0.1500 
 31 H        2.8970    -0.2950     2.3890 H     1 <1>   0.1500 
 32 H       -3.0840     2.2620     1.0280 H     1 <1>   0.0800 
 33 H       -3.1670     0.8720    -0.0250 H     1 <1>   0.0800 
 34 H        0.6810     1.9240     1.3000 H     1 <1>   0.0800 
 35 H       -0.6220     2.9380     1.8410 H     1 <1>   0.0800 
 36 H        3.2850     0.5070    -2.4460 H     1 <1>   0.1500 
 37 H        5.0060     0.5610     1.4650 H     1 <1>   0.1500 
 38 H       -2.5070     3.3970    -0.8990 H     1 <1>   0.0800 
 39 H       -1.8690     1.9560    -1.6650 H     1 <1>   0.0800 
 40 H        0.2190     2.4240    -0.9700 H     1 <1>   0.0800 
 41 H       -0.3330     3.9220    -0.2460 H     1 <1>   0.0800 
 42 H        5.0320     2.1230    -2.6490 H     1 <1>   0.0800 
 43 H        5.5840     0.4710    -2.9130 H     1 <1>   0.0800 
 44 H        7.7040     1.5290    -0.6080 H     1 <1>   0.3700 
 45 H        9.4860     3.1500    -2.2930 H     1 <1>   0.0800 
 46 H       10.0710     1.5560    -1.8760 H     1 <1>   0.0800 
 47 H        8.6820     4.6820    -0.3210 H     1 <1>   0.1500 
 48 H       10.9850     1.1750     0.3710 H     1 <1>   0.1500 
 49 H        9.3070     5.4290     1.9120 H     1 <1>   0.1500 
 50 H       11.5170     2.0600     2.5720 H     1 <1>   0.1500 
@<TRIPOS>BOND
  1   1   2  2   
  2   1   3  2   
  3   1   4  am  
  4   1   5  1   
  5   4   6  1   
  6   4  28  1   
  7   5   7  ar  
  8   5   8  ar  
  9   6   9  1   
 10   6  10  1   
 11   6  29  1   
 12   7  11  ar  
 13   7  30  1   
 14   8  12  ar  
 15   8  31  1   
 16   9  13  1   
 17   9  32  1   
 18   9  33  1   
 19  10  14  1   
 20  10  34  1   
 21  10  35  1   
 22  11  15  ar  
 23  11  36  1   
 24  12  15  ar  
 25  12  37  1   
 26  13  14  1   
 27  13  38  1   
 28  13  39  1   
 29  14  40  1   
 30  14  41  1   
 31  15  16  1   
 32  16  17  1   
 33  17  18  1   
 34  17  42  1   
 35  17  43  1   
 36  18  19  2   
 37  18  20  am  
 38  20  21  1   
 39  20  44  1   
 40  21  22  1   
 41  21  45  1   
 42  21  46  1   
 43  22  23  ar  
 44  22  24  ar  
 45  23  25  ar  
 46  23  47  1   
 47  24  26  ar  
 48  24  48  1   
 49  25  27  ar  
 50  25  49  1   
 51  26  27  ar  
 52  26  50  1   
@<TRIPOS>SUBSTRUCTURE
  1 ****  15 GROUP 4 **** **** 0

# MOE 2024.06 (io_trps.svl 2023.06)
