@<TRIPOS>MOLECULE
1-Methyl-8-o-tolyl-5,6,7,8-tetrahydro-1H-1,3,4b,8,9-pentaaza-fluorene-2,4-dione
41 44 1 0 0 
SMALL
USER_CHARGES


@<TRIPOS>ATOM
  1 O        1.4070    -0.1860    -1.8560 O.2   1 <1>  -0.5760 
  2 C        2.2550     0.5340    -1.3830 C.2   1 <1>   0.6850 
  3 N        3.5120     0.0650    -1.0250 N.am  1 <1>  -0.4430 
  4 N        1.9550     1.8540    -1.1970 N.am  1 <1>  -0.4960 
  5 C        4.4090     0.9750    -0.4860 C.2   1 <1>   0.4190 
  6 C        3.8870    -1.3670    -1.2080 C.3   1 <1>   0.0500 
  7 C        2.8250     2.7640    -0.6690 C.2   1 <1>   0.6980 
  8 N        5.6830     0.7440    -0.0630 N.pl3 1 <1>  -0.7050 
  9 C        4.1230     2.2860    -0.2970 C.2   1 <1>   0.2690 
 10 O        2.4720     3.9200    -0.5400 O.2   1 <1>  -0.5760 
 11 C        6.1800     1.8970     0.3810 C.cat 1 <1>   1.0680 
 12 N        5.2740     2.8600     0.2580 N.pl3 1 <1>  -0.7680 
 13 N        7.4070     2.0990     0.8890 N.pl3 1 <1>  -0.5810 
 14 C        5.4880     4.2670     0.6500 C.3   1 <1>   0.3460 
 15 C        8.3580     1.0770     0.9780 C.ar  1 <1>   0.3030 
 16 C        7.7770     3.4410     1.4150 C.3   1 <1>   0.1590 
 17 C        6.9950     4.5420     0.6820 C.3   1 <1>  -0.1690 
 18 C        9.0920     0.6700    -0.1380 C.ar  1 <1>  -0.1530 
 19 C        8.5470     0.4350     2.1960 C.ar  1 <1>  -0.1590 
 20 C        9.9850    -0.3820    -0.0150 C.ar  1 <1>  -0.1590 
 21 C        8.9500     1.3560    -1.4930 C.3   1 <1>  -0.1060 
 22 C        9.4420    -0.6110     2.3080 C.ar  1 <1>  -0.1590 
 23 C       10.1580    -1.0220     1.1990 C.ar  1 <1>  -0.1590 
 24 H        1.0250     2.1660    -1.4700 H     1 <1>   0.3630 
 25 H        3.0940    -1.9130    -1.6910 H     1 <1>   0.0700 
 26 H        4.0760    -1.8190    -0.2500 H     1 <1>   0.0700 
 27 H        4.7690    -1.4400    -1.8190 H     1 <1>   0.0700 
 28 H        6.2050    -0.1290    -0.0670 H     1 <1>   0.4430 
 29 H        5.0580     4.4320     1.6250 H     1 <1>   0.0700 
 30 H        5.0050     4.9270    -0.0530 H     1 <1>   0.0700 
 31 H        8.8350     3.6010     1.2850 H     1 <1>   0.0700 
 32 H        7.5590     3.4750     2.4700 H     1 <1>   0.0700 
 33 H        7.1730     5.4880     1.1620 H     1 <1>   0.0700 
 34 H        7.3620     4.6260    -0.3260 H     1 <1>   0.0700 
 35 H        7.9940     0.7510     3.0610 H     1 <1>   0.1410 
 36 H       10.5620    -0.7140    -0.8630 H     1 <1>   0.1410 
 37 H        8.9950     2.4250    -1.3810 H     1 <1>   0.0700 
 38 H        8.0180     1.0890    -1.9560 H     1 <1>   0.0700 
 39 H        9.7490     1.0640    -2.1530 H     1 <1>   0.0700 
 40 H        9.5880    -1.1070     3.2540 H     1 <1>   0.1410 
 41 H       10.8580    -1.8370     1.2820 H     1 <1>   0.1410 
@<TRIPOS>BOND
  1   1   2  2   
  2   2   3  am  
  3   2   4  am  
  4   3   5  1   
  5   3   6  1   
  6   4   7  am  
  7   4  24  1   
  8   5   8  1   
  9   5   9  2   
 10   6  25  1   
 11   6  26  1   
 12   6  27  1   
 13   7   9  1   
 14   7  10  2   
 15   8  11  ar  
 16   8  28  1   
 17   9  12  1   
 18  11  12  ar  
 19  11  13  ar  
 20  12  14  1   
 21  13  15  1   
 22  13  16  1   
 23  14  17  1   
 24  14  29  1   
 25  14  30  1   
 26  15  18  ar  
 27  15  19  ar  
 28  16  17  1   
 29  16  31  1   
 30  16  32  1   
 31  17  33  1   
 32  17  34  1   
 33  18  20  ar  
 34  18  21  1   
 35  19  22  ar  
 36  19  35  1   
 37  20  23  ar  
 38  20  36  1   
 39  21  37  1   
 40  21  38  1   
 41  21  39  1   
 42  22  23  ar  
 43  22  40  1   
 44  23  41  1   
@<TRIPOS>SUBSTRUCTURE
  1 ****  11 GROUP 4 **** **** 0

# MOE 2024.06 (io_trps.svl 2023.06)
