@<TRIPOS>MOLECULE
5-Phenyl-isoxazole-3-carboxylic acid (tetrahydro-furan-2-ylmethyl)-amide
36 38 1 0 0 
SMALL
USER_CHARGES


@<TRIPOS>ATOM
  1 O        0.3810    -0.7970     0.4180 O.2   1 <1>  -0.5700 
  2 C        0.1030    -1.5660    -0.4850 C.2   1 <1>   0.7160 
  3 N        1.1000    -1.9820    -1.3210 N.am  1 <1>  -0.7300 
  4 C       -1.2540    -2.0490    -0.6710 C.2   1 <1>   0.2030 
  5 C        2.5310    -1.5760    -1.2430 C.3   1 <1>   0.1400 
  6 N       -1.6490    -2.8960    -1.5740 N.2   1 <1>  -0.4100 
  7 C       -2.3490    -1.6860     0.0900 C.2   1 <1>  -0.1500 
  8 C        3.2640    -2.2900    -0.0980 C.3   1 <1>   0.2000 
  9 O       -2.9360    -3.1090    -1.4520 O.3   1 <1>  -0.0190 
 10 C       -3.3750    -2.3760    -0.4390 C.2   1 <1>   0.0870 
 11 O        4.6250    -2.0370    -0.1980 O.3   1 <1>  -0.5600 
 12 C        3.1730    -3.8110    -0.1200 C.3   1 <1>  -0.1600 
 13 C       -4.7740    -2.4130    -0.0690 C.ar  1 <1>   0.0530 
 14 C        5.3390    -2.9890     0.5220 C.3   1 <1>   0.1200 
 15 C        4.4660    -4.2430     0.5530 C.3   1 <1>  -0.1600 
 16 C       -5.2600    -1.6560     0.9980 C.ar  1 <1>  -0.1500 
 17 C       -5.6930    -3.2030    -0.7620 C.ar  1 <1>  -0.1500 
 18 C       -6.5960    -1.6860     1.3570 C.ar  1 <1>  -0.1500 
 19 C       -7.0300    -3.2370    -0.4080 C.ar  1 <1>  -0.1500 
 20 C       -7.4850    -2.4780     0.6540 C.ar  1 <1>  -0.1500 
 21 H        0.8460    -2.6530    -2.0510 H     1 <1>   0.3700 
 22 H        2.5880    -0.5130    -1.0820 H     1 <1>   0.0800 
 23 H        3.0130    -1.8100    -2.1760 H     1 <1>   0.0800 
 24 H       -2.3280    -0.9980     0.9140 H     1 <1>   0.1500 
 25 H        2.9320    -1.9030     0.8510 H     1 <1>   0.0800 
 26 H        3.1500    -4.1610    -1.1370 H     1 <1>   0.0800 
 27 H        2.2980    -4.1630     0.3970 H     1 <1>   0.0800 
 28 H        5.5050    -2.6040     1.5140 H     1 <1>   0.0800 
 29 H        6.2800    -3.1580     0.0280 H     1 <1>   0.0800 
 30 H        4.9350    -5.0540     0.0240 H     1 <1>   0.0800 
 31 H        4.2950    -4.5400     1.5720 H     1 <1>   0.0800 
 32 H       -4.5890    -1.0330     1.5600 H     1 <1>   0.1500 
 33 H       -5.3610    -3.8010    -1.5910 H     1 <1>   0.1500 
 34 H       -6.9450    -1.0930     2.1850 H     1 <1>   0.1500 
 35 H       -7.7170    -3.8550    -0.9590 H     1 <1>   0.1500 
 36 H       -8.5250    -2.5030     0.9310 H     1 <1>   0.1500 
@<TRIPOS>BOND
  1   1   2  2   
  2   2   3  am  
  3   2   4  1   
  4   3   5  1   
  5   3  21  1   
  6   4   6  2   
  7   4   7  1   
  8   5   8  1   
  9   5  22  1   
 10   5  23  1   
 11   6   9  1   
 12   7  10  2   
 13   7  24  1   
 14   8  11  1   
 15   8  12  1   
 16   8  25  1   
 17   9  10  1   
 18  10  13  1   
 19  11  14  1   
 20  12  15  1   
 21  12  26  1   
 22  12  27  1   
 23  13  16  ar  
 24  13  17  ar  
 25  14  15  1   
 26  14  28  1   
 27  14  29  1   
 28  15  30  1   
 29  15  31  1   
 30  16  18  ar  
 31  16  32  1   
 32  17  19  ar  
 33  17  33  1   
 34  18  20  ar  
 35  18  34  1   
 36  19  20  ar  
 37  19  35  1   
 38  20  36  1   
@<TRIPOS>SUBSTRUCTURE
  1 ****   4 GROUP 4 **** **** 0

# MOE 2024.06 (io_trps.svl 2023.06)
