@<TRIPOS>MOLECULE
N-(2-Methyl-cyclohexyl)-2-(5-methyl-[1,3,4]thiadiazol-2-ylsulfanyl)-acetamide
37 38 1 0 0 
SMALL
USER_CHARGES


@<TRIPOS>ATOM
  1 S        0.6520     1.5540     1.4210 S.3   1 <1>  -0.0800 
  2 C        1.7140     1.2150     0.1070 C.2   1 <1>   0.4340 
  3 C       -0.6260     1.4730     0.2530 C.2   1 <1>   0.1980 
  4 S        3.4540     1.1060     0.4750 S.3   1 <1>  -0.2860 
  5 N        1.1420     1.0710    -1.0190 N.2   1 <1>  -0.3380 
  6 N       -0.2170     1.2220    -0.9280 N.2   1 <1>  -0.3380 
  7 C       -2.0410     1.7000     0.7360 C.3   1 <1>  -0.0600 
  8 C        4.2010     0.7560    -1.1930 C.3   1 <1>   0.1310 
  9 C        5.7100     0.5860    -1.1120 C.2   1 <1>   0.5690 
 10 O        6.3450     0.7190    -2.1300 O.2   1 <1>  -0.5700 
 11 N        6.2870     0.2860     0.0850 N.am  1 <1>  -0.7300 
 12 C        7.7270     0.1300     0.3980 C.3   1 <1>   0.2200 
 13 C        8.5260     1.4240     0.1250 C.3   1 <1>  -0.0800 
 14 C        8.3060    -1.0740    -0.3590 C.3   1 <1>  -0.1600 
 15 C       10.0160     1.2090     0.4500 C.3   1 <1>  -0.1600 
 16 C        7.9900     2.6220     0.9280 C.3   1 <1>  -0.2400 
 17 C        9.7920    -1.2730    -0.0270 C.3   1 <1>  -0.1600 
 18 C       10.5920     0.0050    -0.3100 C.3   1 <1>  -0.1600 
 19 H       -2.2980     0.9620     1.4730 H     1 <1>   0.0800 
 20 H       -2.7240     1.6200    -0.0900 H     1 <1>   0.0800 
 21 H       -2.1280     2.6800     1.1670 H     1 <1>   0.0800 
 22 H        3.9540     1.5830    -1.8320 H     1 <1>   0.0800 
 23 H        3.7450    -0.1410    -1.5680 H     1 <1>   0.0800 
 24 H        5.6770     0.2620     0.9040 H     1 <1>   0.3700 
 25 H        7.8060    -0.0830     1.4500 H     1 <1>   0.0800 
 26 H        8.4520     1.6550    -0.9250 H     1 <1>   0.0800 
 27 H        8.2090    -0.9150    -1.4180 H     1 <1>   0.0800 
 28 H        7.7590    -1.9610    -0.0960 H     1 <1>   0.0800 
 29 H       10.1360     1.0490     1.5070 H     1 <1>   0.0800 
 30 H       10.5740     2.0910     0.1840 H     1 <1>   0.0800 
 31 H        8.0220     2.4170     1.9830 H     1 <1>   0.0800 
 32 H        6.9750     2.8380     0.6480 H     1 <1>   0.0800 
 33 H        8.5820     3.4970     0.7270 H     1 <1>   0.0800 
 34 H       10.1860    -2.0820    -0.6170 H     1 <1>   0.0800 
 35 H        9.8970    -1.5380     1.0110 H     1 <1>   0.0800 
 36 H       11.6190    -0.1420    -0.0250 H     1 <1>   0.0800 
 37 H       10.5700     0.2100    -1.3670 H     1 <1>   0.0800 
@<TRIPOS>BOND
  1   1   2  1   
  2   1   3  1   
  3   2   4  1   
  4   2   5  2   
  5   3   6  2   
  6   3   7  1   
  7   4   8  1   
  8   5   6  1   
  9   7  19  1   
 10   7  20  1   
 11   7  21  1   
 12   8   9  1   
 13   8  22  1   
 14   8  23  1   
 15   9  10  2   
 16   9  11  am  
 17  11  12  1   
 18  11  24  1   
 19  12  13  1   
 20  12  14  1   
 21  12  25  1   
 22  13  15  1   
 23  13  16  1   
 24  13  26  1   
 25  14  17  1   
 26  14  27  1   
 27  14  28  1   
 28  15  18  1   
 29  15  29  1   
 30  15  30  1   
 31  16  31  1   
 32  16  32  1   
 33  16  33  1   
 34  17  18  1   
 35  17  34  1   
 36  17  35  1   
 37  18  36  1   
 38  18  37  1   
@<TRIPOS>SUBSTRUCTURE
  1 ****   9 GROUP 4 **** **** 0

# MOE 2024.06 (io_trps.svl 2023.06)
