@<TRIPOS>MOLECULE
N-Cyclopentyl-2-[5-(3-trifluoromethyl-phenyl)-tetrazol-2-yl]-acetamide
40 42 1 0 0 
SMALL
USER_CHARGES


@<TRIPOS>ATOM
  1 F        0.5390     3.0500     2.4130 F     1 <1>  -0.3400 
  2 C        1.4480     2.5450     1.5860 C.3   1 <1>   1.1640 
  3 F        2.3950     2.0230     2.3560 F     1 <1>  -0.3400 
  4 F        0.8640     1.5260     0.9690 F     1 <1>  -0.3400 
  5 C        1.9880     3.5860     0.5910 C.ar  1 <1>  -0.1440 
  6 C        3.2890     3.5040     0.1070 C.ar  1 <1>  -0.1500 
  7 C        1.1800     4.6260     0.1460 C.ar  1 <1>  -0.1500 
  8 C        3.8120     4.4270    -0.8010 C.ar  1 <1>   0.0540 
  9 C        1.6690     5.5560    -0.7520 C.ar  1 <1>  -0.1500 
 10 C        5.1780     4.3150    -1.2880 C.2   1 <1>   0.4620 
 11 C        2.9660     5.4560    -1.2170 C.ar  1 <1>  -0.1500 
 12 N        5.7290     5.2090    -2.1190 N.2   1 <1>  -0.2270 
 13 N        5.9930     3.3590    -0.9790 N.2   1 <1>  -0.7070 
 14 N        6.9170     4.8180    -2.3450 N.2   1 <1>  -0.4180 
 15 N        7.0710     3.7080    -1.6440 N.pl3 1 <1>   0.5800 
 16 C        8.3150     2.9380    -1.6570 C.3   1 <1>   0.1570 
 17 C        8.9820     3.0080    -0.3050 C.2   1 <1>   0.5690 
 18 O        9.1410     1.9800     0.3020 O.2   1 <1>  -0.5700 
 19 N        9.4480     4.1640     0.2300 N.am  1 <1>  -0.7300 
 20 C        9.4130     5.5440    -0.2910 C.3   1 <1>   0.2200 
 21 C       10.7000     6.2490     0.1150 C.3   1 <1>  -0.1600 
 22 C        8.3360     6.3230     0.4540 C.3   1 <1>  -0.1600 
 23 C       10.4890     6.7040     1.5640 C.3   1 <1>  -0.1600 
 24 C        8.9710     6.7440     1.7830 C.3   1 <1>  -0.1600 
 25 H        3.9290     2.7010     0.4370 H     1 <1>   0.1500 
 26 H        0.1640     4.7200     0.4950 H     1 <1>   0.1500 
 27 H        1.0370     6.3600    -1.0900 H     1 <1>   0.1500 
 28 H        3.3250     6.1920    -1.9160 H     1 <1>   0.1500 
 29 H        8.9700     3.3330    -2.4080 H     1 <1>   0.0800 
 30 H        8.0790     1.9190    -1.8900 H     1 <1>   0.0800 
 31 H        9.8380     4.0890     1.1720 H     1 <1>   0.3700 
 32 H        9.2700     5.5580    -1.3580 H     1 <1>   0.0800 
 33 H       10.8210     7.1190    -0.5060 H     1 <1>   0.0800 
 34 H       11.5670     5.6220    -0.0010 H     1 <1>   0.0800 
 35 H        7.4340     5.7520     0.5900 H     1 <1>   0.0800 
 36 H        8.0980     7.2040    -0.1160 H     1 <1>   0.0800 
 37 H       10.9360     7.6690     1.7310 H     1 <1>   0.0800 
 38 H       10.9340     5.9950     2.2420 H     1 <1>   0.0800 
 39 H        8.6980     6.0450     2.5550 H     1 <1>   0.0800 
 40 H        8.6390     7.7270     2.0730 H     1 <1>   0.0800 
@<TRIPOS>BOND
  1   1   2  1   
  2   2   3  1   
  3   2   4  1   
  4   2   5  1   
  5   5   6  ar  
  6   5   7  ar  
  7   6   8  ar  
  8   6  25  1   
  9   7   9  ar  
 10   7  26  1   
 11   8  10  1   
 12   8  11  ar  
 13   9  11  ar  
 14   9  27  1   
 15  10  12  1   
 16  10  13  2   
 17  11  28  1   
 18  12  14  2   
 19  13  15  1   
 20  14  15  1   
 21  15  16  1   
 22  16  17  1   
 23  16  29  1   
 24  16  30  1   
 25  17  18  2   
 26  17  19  am  
 27  19  20  1   
 28  19  31  1   
 29  20  21  1   
 30  20  22  1   
 31  20  32  1   
 32  21  23  1   
 33  21  33  1   
 34  21  34  1   
 35  22  24  1   
 36  22  35  1   
 37  22  36  1   
 38  23  24  1   
 39  23  37  1   
 40  23  38  1   
 41  24  39  1   
 42  24  40  1   
@<TRIPOS>SUBSTRUCTURE
  1 ****  10 GROUP 4 **** **** 0

# MOE 2024.06 (io_trps.svl 2023.06)
