@<TRIPOS>MOLECULE
N-(4-Acetylamino-phenyl)-2-[2-methyl-4-(pyrrolidine-1-sulfonyl)-phenoxy]-acetami
55 57 1 0 0 
SMALL
USER_CHARGES


@<TRIPOS>ATOM
  1 S        0.4420    -0.1790    -1.5080 S.o2  1 <1>   1.4470 
  2 O        0.4370    -1.6030    -1.7660 O.2   1 <1>  -0.6500 
  3 O       -0.0340     0.7310    -2.5290 O.2   1 <1>  -0.6500 
  4 N       -0.5160     0.0680    -0.1340 N.am  1 <1>  -0.8490 
  5 C        2.0880     0.3170    -0.9360 C.ar  1 <1>  -0.0090 
  6 C       -1.8250    -0.5480    -0.2420 C.3   1 <1>   0.1960 
  7 C       -0.7690     1.4620     0.1900 C.3   1 <1>   0.1960 
  8 C        2.8040     1.3250    -1.5710 C.ar  1 <1>  -0.1500 
  9 C        2.6700    -0.3010     0.1630 C.ar  1 <1>  -0.1500 
 10 C       -2.6480     0.1000     0.8660 C.3   1 <1>  -0.1600 
 11 C       -1.9230     1.4090     1.1820 C.3   1 <1>  -0.1600 
 12 C        4.0600     1.7130    -1.1320 C.ar  1 <1>  -0.1430 
 13 C        3.9210     0.0700     0.6180 C.ar  1 <1>  -0.1500 
 14 C        4.6250     1.0820    -0.0290 C.ar  1 <1>   0.0820 
 15 C        4.8030     2.8210    -1.8640 C.3   1 <1>  -0.0970 
 16 O        5.8560     1.4900     0.3670 O.3   1 <1>  -0.3630 
 17 C        6.5460     0.8560     1.4380 C.3   1 <1>   0.1810 
 18 C        7.9230     1.4720     1.6370 C.2   1 <1>   0.5690 
 19 O        8.6010     1.0630     2.5480 O.2   1 <1>  -0.5700 
 20 N        8.3110     2.4610     0.7740 N.am  1 <1>  -0.5470 
 21 C        9.4850     3.2260     0.6740 C.ar  1 <1>   0.1170 
 22 C        9.4650     4.3750    -0.1070 C.ar  1 <1>  -0.1500 
 23 C       10.6750     2.8870     1.3070 C.ar  1 <1>  -0.1500 
 24 C       10.5930     5.1620    -0.2480 C.ar  1 <1>  -0.1500 
 25 C       11.8040     3.6740     1.1660 C.ar  1 <1>  -0.1500 
 26 C       11.7840     4.8230     0.3860 C.ar  1 <1>   0.1170 
 27 N       12.9570     5.5910     0.2870 N.am  1 <1>  -0.5470 
 28 C       13.3430     6.5300    -0.6260 C.2   1 <1>   0.5690 
 29 O       12.6890     6.8640    -1.5810 O.2   1 <1>  -0.5700 
 30 C       14.6870     7.1800    -0.4160 C.3   1 <1>  -0.1790 
 31 H       -1.7580    -1.6180    -0.1250 H     1 <1>   0.0800 
 32 H       -2.2590    -0.3200    -1.2030 H     1 <1>   0.0800 
 33 H       -1.0780     2.0020    -0.6900 H     1 <1>   0.0800 
 34 H        0.1050     1.9290     0.6130 H     1 <1>   0.0800 
 35 H        2.3640     1.8090    -2.4270 H     1 <1>   0.1500 
 36 H        2.1270    -1.0840     0.6670 H     1 <1>   0.1500 
 37 H       -2.6600    -0.5390     1.7310 H     1 <1>   0.0800 
 38 H       -3.6590     0.2660     0.5380 H     1 <1>   0.0800 
 39 H       -2.5640     2.2660     1.0720 H     1 <1>   0.0800 
 40 H       -1.5340     1.3860     2.1850 H     1 <1>   0.0800 
 41 H        4.3210    -0.4410     1.4730 H     1 <1>   0.1500 
 42 H        4.2250     3.2000    -2.6870 H     1 <1>   0.0800 
 43 H        5.7350     2.4450    -2.2470 H     1 <1>   0.0800 
 44 H        5.0070     3.6330    -1.1880 H     1 <1>   0.0800 
 45 H        6.6560    -0.1870     1.2040 H     1 <1>   0.0800 
 46 H        5.9700     0.9770     2.3360 H     1 <1>   0.0800 
 47 H        7.5830     2.6940     0.0960 H     1 <1>   0.3700 
 48 H        8.5600     4.6630    -0.6090 H     1 <1>   0.1500 
 49 H       10.7290     2.0020     1.9140 H     1 <1>   0.1500 
 50 H       10.5390     6.0480    -0.8530 H     1 <1>   0.1500 
 51 H       12.7080     3.3840     1.6680 H     1 <1>   0.1500 
 52 H       13.6500     5.3850     1.0020 H     1 <1>   0.3700 
 53 H       14.7180     7.6560     0.5450 H     1 <1>   0.0800 
 54 H       14.8530     7.9220    -1.1760 H     1 <1>   0.0800 
 55 H       15.4630     6.4400    -0.4800 H     1 <1>   0.0800 
@<TRIPOS>BOND
  1   1   2  2   
  2   1   3  2   
  3   1   4  am  
  4   1   5  1   
  5   4   6  1   
  6   4   7  1   
  7   5   8  ar  
  8   5   9  ar  
  9   6  10  1   
 10   6  31  1   
 11   6  32  1   
 12   7  11  1   
 13   7  33  1   
 14   7  34  1   
 15   8  12  ar  
 16   8  35  1   
 17   9  13  ar  
 18   9  36  1   
 19  10  11  1   
 20  10  37  1   
 21  10  38  1   
 22  11  39  1   
 23  11  40  1   
 24  12  14  ar  
 25  12  15  1   
 26  13  14  ar  
 27  13  41  1   
 28  14  16  1   
 29  15  42  1   
 30  15  43  1   
 31  15  44  1   
 32  16  17  1   
 33  17  18  1   
 34  17  45  1   
 35  17  46  1   
 36  18  19  2   
 37  18  20  am  
 38  20  21  1   
 39  20  47  1   
 40  21  22  ar  
 41  21  23  ar  
 42  22  24  ar  
 43  22  48  1   
 44  23  25  ar  
 45  23  49  1   
 46  24  26  ar  
 47  24  50  1   
 48  25  26  ar  
 49  25  51  1   
 50  26  27  1   
 51  27  28  am  
 52  27  52  1   
 53  28  29  2   
 54  28  30  1   
 55  30  53  1   
 56  30  54  1   
 57  30  55  1   
@<TRIPOS>SUBSTRUCTURE
  1 ****  16 GROUP 4 **** **** 0

# MOE 2024.06 (io_trps.svl 2023.06)
