@<TRIPOS>MOLECULE
N-[2-(4-Acetyl-piperazin-1-yl)-phenyl]-3-chloro-4-methoxy-benzamide
49 51 1 0 0 
SMALL
USER_CHARGES


@<TRIPOS>ATOM
  1 CL       0.4630     0.6540     2.7180 Cl    1 <1>  -0.1770 
  2 C        1.5230     1.4700     1.5890 C.ar  1 <1>   0.1770 
  3 C        1.0730     2.5820     0.8860 C.ar  1 <1>   0.0830 
  4 C        2.8030     0.9810     1.4260 C.ar  1 <1>  -0.1500 
  5 O       -0.1940     3.0170     1.0970 O.3   1 <1>  -0.3630 
  6 C        1.9510     3.1950    -0.0040 C.ar  1 <1>  -0.1500 
  7 C        3.6980     1.5910     0.5470 C.ar  1 <1>   0.0860 
  8 C       -0.7410     4.1160     0.4030 C.3   1 <1>   0.0400 
  9 C        3.2340     2.7020    -0.1670 C.ar  1 <1>  -0.1500 
 10 C        5.0500     1.0890     0.3950 C.2   1 <1>   0.5440 
 11 O        5.3020    -0.0800     0.6110 O.2   1 <1>  -0.5700 
 12 N        6.0450     1.9550     0.0250 N.am  1 <1>  -0.5470 
 13 C        7.4130     1.8410    -0.2570 C.ar  1 <1>   0.1170 
 14 C        8.0820     3.0460    -0.5180 C.ar  1 <1>   0.1000 
 15 C        8.1130     0.6440    -0.2970 C.ar  1 <1>  -0.1500 
 16 N        7.3720     4.2610    -0.4740 N.pl3 1 <1>  -0.8380 
 17 C        9.4390     3.0180    -0.8100 C.ar  1 <1>  -0.1500 
 18 C        9.4670     0.6310    -0.5900 C.ar  1 <1>  -0.1500 
 19 C        7.6740     5.1440     0.6890 C.3   1 <1>   0.2090 
 20 C        7.3030     5.0360    -1.7490 C.3   1 <1>   0.2090 
 21 C       10.1300     1.8180    -0.8470 C.ar  1 <1>  -0.1500 
 22 C        6.6060     6.2450     0.8290 C.3   1 <1>   0.1400 
 23 C        6.2250     6.1280    -1.6570 C.3   1 <1>   0.1400 
 24 N        6.4190     7.0030    -0.4530 N.am  1 <1>  -0.6600 
 25 C        6.4110     8.3680    -0.5710 C.2   1 <1>   0.5690 
 26 O        6.2650     8.9160    -1.6360 O.2   1 <1>  -0.5700 
 27 C        6.5850     9.2500     0.6430 C.3   1 <1>  -0.1790 
 28 H        3.1130     0.1170     1.9870 H     1 <1>   0.1500 
 29 H        1.6490     4.0520    -0.5780 H     1 <1>   0.1500 
 30 H       -1.7540     4.2500     0.7380 H     1 <1>   0.0800 
 31 H       -0.7320     3.9040    -0.6520 H     1 <1>   0.0800 
 32 H       -0.1640     4.9950     0.6260 H     1 <1>   0.0800 
 33 H        3.8860     3.1880    -0.8720 H     1 <1>   0.1500 
 34 H        5.7920     2.9440    -0.0290 H     1 <1>   0.3700 
 35 H        7.6080    -0.2840    -0.1010 H     1 <1>   0.1500 
 36 H        9.9580     3.9370    -1.0070 H     1 <1>   0.1500 
 37 H        9.9990    -0.3030    -0.6180 H     1 <1>   0.1500 
 38 H        8.6410     5.5980     0.5580 H     1 <1>   0.0800 
 39 H        7.7020     4.5520     1.5890 H     1 <1>   0.0800 
 40 H        7.0730     4.3690    -2.5620 H     1 <1>   0.0800 
 41 H        8.2560     5.4950    -1.9510 H     1 <1>   0.0800 
 42 H       11.1820     1.8080    -1.0740 H     1 <1>   0.1500 
 43 H        6.8950     6.9010     1.6280 H     1 <1>   0.0800 
 44 H        5.6720     5.7860     1.1010 H     1 <1>   0.0800 
 45 H        5.2580     5.6620    -1.5980 H     1 <1>   0.0800 
 46 H        6.2500     6.7150    -2.5590 H     1 <1>   0.0800 
 47 H        7.5600     9.1020     1.0650 H     1 <1>   0.0800 
 48 H        5.8290     9.0250     1.3710 H     1 <1>   0.0800 
 49 H        6.4880    10.2810     0.3560 H     1 <1>   0.0800 
@<TRIPOS>BOND
  1   1   2  1   
  2   2   3  ar  
  3   2   4  ar  
  4   3   5  1   
  5   3   6  ar  
  6   4   7  ar  
  7   4  28  1   
  8   5   8  1   
  9   6   9  ar  
 10   6  29  1   
 11   7   9  ar  
 12   7  10  1   
 13   8  30  1   
 14   8  31  1   
 15   8  32  1   
 16   9  33  1   
 17  10  11  2   
 18  10  12  am  
 19  12  13  1   
 20  12  34  1   
 21  13  14  ar  
 22  13  15  ar  
 23  14  16  1   
 24  14  17  ar  
 25  15  18  ar  
 26  15  35  1   
 27  16  19  1   
 28  16  20  1   
 29  17  21  ar  
 30  17  36  1   
 31  18  21  ar  
 32  18  37  1   
 33  19  22  1   
 34  19  38  1   
 35  19  39  1   
 36  20  23  1   
 37  20  40  1   
 38  20  41  1   
 39  21  42  1   
 40  22  24  1   
 41  22  43  1   
 42  22  44  1   
 43  23  24  1   
 44  23  45  1   
 45  23  46  1   
 46  24  25  am  
 47  25  26  2   
 48  25  27  1   
 49  27  47  1   
 50  27  48  1   
 51  27  49  1   
@<TRIPOS>SUBSTRUCTURE
  1 ****  12 GROUP 4 **** **** 0

# MOE 2024.06 (io_trps.svl 2023.06)
