@<TRIPOS>MOLECULE
N-tert-Butyl-3-[3-(4-chloro-phenyl)-[1,2,4]oxadiazol-5-yl]-propionamide
39 40 1 0 0 
SMALL
USER_CHARGES


@<TRIPOS>ATOM
  1 CL       1.7610    -0.5840     1.8760 Cl    1 <1>  -0.1770 
  2 C        2.6980     0.7090     1.1750 C.ar  1 <1>   0.1770 
  3 C        3.1600     1.7300     1.9820 C.ar  1 <1>  -0.1500 
  4 C        2.9680     0.6970    -0.1790 C.ar  1 <1>  -0.1500 
  5 C        3.9040     2.7530     1.4200 C.ar  1 <1>  -0.1500 
  6 C        3.7130     1.7260    -0.7290 C.ar  1 <1>  -0.1500 
  7 C        4.2000     2.7790     0.0530 C.ar  1 <1>   0.0540 
  8 C        4.9810     3.8540    -0.5380 C.2   1 <1>   0.4620 
  9 N        5.2720     3.9710    -1.7850 N.2   1 <1>  -0.4100 
 10 N        5.4920     4.8570     0.1830 N.2   1 <1>  -0.5650 
 11 O        5.9760     5.0490    -1.9310 O.3   1 <1>  -0.0190 
 12 C        6.0720     5.5320    -0.7200 C.2   1 <1>   0.2980 
 13 C        6.8540     6.8110    -0.5050 C.3   1 <1>   0.0200 
 14 C        8.3610     6.5710    -0.6910 C.3   1 <1>  -0.0990 
 15 C        9.1920     7.8150    -0.4320 C.2   1 <1>   0.5690 
 16 O        8.6570     8.8920    -0.5020 O.2   1 <1>  -0.5700 
 17 N       10.5120     7.7720    -0.1340 N.am  1 <1>  -0.7300 
 18 C       11.5160     6.7110    -0.0010 C.3   1 <1>   0.3000 
 19 C       11.4630     5.7400    -1.1820 C.3   1 <1>  -0.2400 
 20 C       12.8710     7.4170     0.0020 C.3   1 <1>  -0.2400 
 21 C       11.3180     5.9920     1.3330 C.3   1 <1>  -0.2400 
 22 H        2.9390     1.7200     3.0340 H     1 <1>   0.1500 
 23 H        2.5990    -0.1070    -0.7900 H     1 <1>   0.1500 
 24 H        4.2610     3.5480     2.0530 H     1 <1>   0.1500 
 25 H        3.9210     1.7140    -1.7860 H     1 <1>   0.1500 
 26 H        6.6680     7.1730     0.4910 H     1 <1>   0.0800 
 27 H        6.5060     7.5550    -1.2000 H     1 <1>   0.0800 
 28 H        8.5460     6.2460    -1.6970 H     1 <1>   0.0800 
 29 H        8.6610     5.7940    -0.0170 H     1 <1>   0.0800 
 30 H       10.9100     8.6980     0.0240 H     1 <1>   0.3700 
 31 H       11.4710     6.2800    -2.1120 H     1 <1>   0.0800 
 32 H       10.5950     5.1120    -1.1400 H     1 <1>   0.0800 
 33 H       12.3220     5.0930    -1.1620 H     1 <1>   0.0800 
 34 H       13.6640     6.6990     0.1110 H     1 <1>   0.0800 
 35 H       13.0230     7.9450    -0.9220 H     1 <1>   0.0800 
 36 H       12.9370     8.1110     0.8210 H     1 <1>   0.0800 
 37 H       10.3820     5.4690     1.3600 H     1 <1>   0.0800 
 38 H       11.3460     6.6950     2.1460 H     1 <1>   0.0800 
 39 H       12.1020     5.2710     1.4820 H     1 <1>   0.0800 
@<TRIPOS>BOND
  1   1   2  1   
  2   2   3  ar  
  3   2   4  ar  
  4   3   5  ar  
  5   3  22  1   
  6   4   6  ar  
  7   4  23  1   
  8   5   7  ar  
  9   5  24  1   
 10   6   7  ar  
 11   6  25  1   
 12   7   8  1   
 13   8   9  2   
 14   8  10  1   
 15   9  11  1   
 16  10  12  2   
 17  11  12  1   
 18  12  13  1   
 19  13  14  1   
 20  13  26  1   
 21  13  27  1   
 22  14  15  1   
 23  14  28  1   
 24  14  29  1   
 25  15  16  2   
 26  15  17  am  
 27  17  18  1   
 28  17  30  1   
 29  18  19  1   
 30  18  20  1   
 31  18  21  1   
 32  19  31  1   
 33  19  32  1   
 34  19  33  1   
 35  20  34  1   
 36  20  35  1   
 37  20  36  1   
 38  21  37  1   
 39  21  38  1   
 40  21  39  1   
@<TRIPOS>SUBSTRUCTURE
  1 ****  10 GROUP 4 **** **** 0

# MOE 2024.06 (io_trps.svl 2023.06)
