@<TRIPOS>MOLECULE
1,3-Dimethyl-5-(morpholine-4-sulfonyl)-1,3-dihydro-benzoimidazol-2-one
38 40 1 0 0 
SMALL
USER_CHARGES


@<TRIPOS>ATOM
  1 S       -0.0520     0.1190    -2.1760 S.o2  1 <1>   1.4470 
  2 O        0.4770     1.2520    -2.9030 O.2   1 <1>  -0.6500 
  3 O       -0.7780    -0.9230    -2.8680 O.2   1 <1>  -0.6500 
  4 N       -1.0970     0.7430    -0.9940 N.am  1 <1>  -0.8490 
  5 C        1.2970    -0.6400    -1.2250 C.ar  1 <1>  -0.0090 
  6 C       -0.5240     1.8220    -0.1780 C.3   1 <1>   0.1960 
  7 C       -1.7620    -0.2720    -0.1650 C.3   1 <1>   0.1960 
  8 C        2.4260     0.0960    -0.8830 C.ar  1 <1>  -0.1500 
  9 C        1.2180    -1.9720    -0.8020 C.ar  1 <1>  -0.1500 
 10 C       -1.5710     2.3920     0.7960 C.3   1 <1>   0.1200 
 11 C       -2.7620     0.3800     0.8070 C.3   1 <1>   0.1200 
 12 C        3.4330    -0.4880    -0.1310 C.ar  1 <1>   0.1170 
 13 C        2.2210    -2.5620    -0.0500 C.ar  1 <1>  -0.1500 
 14 O       -2.1280     1.3670     1.5710 O.3   1 <1>  -0.5600 
 15 N        4.6390     0.0170     0.3380 N.am  1 <1>  -0.4770 
 16 C        3.3320    -1.8040     0.2860 C.ar  1 <1>   0.1170 
 17 C        5.2600    -0.9890     1.0290 C.2   1 <1>   0.6900 
 18 C        5.1910     1.3640     0.0790 C.3   1 <1>   0.0600 
 19 N        4.4740    -2.1100     1.0130 N.am  1 <1>  -0.4770 
 20 O        6.3510    -0.9010     1.5730 O.2   1 <1>  -0.5700 
 21 C        4.8030    -3.4120     1.6320 C.3   1 <1>   0.0600 
 22 H       -0.1770     2.6150    -0.8190 H     1 <1>   0.0800 
 23 H        0.3130     1.4570     0.3920 H     1 <1>   0.0800 
 24 H       -1.0350    -0.8230     0.4060 H     1 <1>   0.0800 
 25 H       -2.2920    -0.9640    -0.7980 H     1 <1>   0.0800 
 26 H        2.5280     1.1190    -1.2010 H     1 <1>   0.1500 
 27 H        0.3540    -2.5560    -1.0750 H     1 <1>   0.1500 
 28 H       -2.3600     2.8850     0.2560 H     1 <1>   0.0800 
 29 H       -1.1140     3.0990     1.4650 H     1 <1>   0.0800 
 30 H       -3.1610    -0.3550     1.4820 H     1 <1>   0.0800 
 31 H       -3.5750     0.8310     0.2640 H     1 <1>   0.0800 
 32 H        2.1510    -3.5860     0.2690 H     1 <1>   0.1500 
 33 H        4.5330     2.1090     0.4870 H     1 <1>   0.0800 
 34 H        5.2940     1.5130    -0.9810 H     1 <1>   0.0800 
 35 H        6.1590     1.4580     0.5420 H     1 <1>   0.0800 
 36 H        4.0500    -3.6680     2.3560 H     1 <1>   0.0800 
 37 H        5.7580    -3.3530     2.1240 H     1 <1>   0.0800 
 38 H        4.8470    -4.1720     0.8720 H     1 <1>   0.0800 
@<TRIPOS>BOND
  1   1   2  2   
  2   1   3  2   
  3   1   4  am  
  4   1   5  1   
  5   4   6  1   
  6   4   7  1   
  7   5   8  ar  
  8   5   9  ar  
  9   6  10  1   
 10   6  22  1   
 11   6  23  1   
 12   7  11  1   
 13   7  24  1   
 14   7  25  1   
 15   8  12  ar  
 16   8  26  1   
 17   9  13  ar  
 18   9  27  1   
 19  10  14  1   
 20  10  28  1   
 21  10  29  1   
 22  11  14  1   
 23  11  30  1   
 24  11  31  1   
 25  12  15  1   
 26  12  16  ar  
 27  13  16  ar  
 28  13  32  1   
 29  15  17  am  
 30  15  18  1   
 31  16  19  1   
 32  17  19  am  
 33  17  20  2   
 34  18  33  1   
 35  18  34  1   
 36  18  35  1   
 37  19  21  1   
 38  21  36  1   
 39  21  37  1   
 40  21  38  1   
@<TRIPOS>SUBSTRUCTURE
  1 ****   8 GROUP 4 **** **** 0

# MOE 2024.06 (io_trps.svl 2023.06)
