@<TRIPOS>MOLECULE
4,6-Diethyl-4,8-dimethyl-4H-pyrrolo[3,2,1-ij]quinoline-1,2-dione
39 41 1 0 0 
SMALL
USER_CHARGES


@<TRIPOS>ATOM
  1 O        0.0670     0.6410    -0.6020 O.2   1 <1>  -0.5700 
  2 C       -0.8090     1.4870    -0.5490 C.2   1 <1>   0.6300 
  3 N       -0.5910     2.7710    -0.1070 N.am  1 <1>  -0.4770 
  4 C       -2.2120     1.3590    -0.9180 C.2   1 <1>   0.4840 
  5 C       -1.7870     3.4620    -0.1850 C.ar  1 <1>   0.1170 
  6 C        0.6630     3.4200     0.3480 C.3   1 <1>   0.4380 
  7 O       -2.8190     0.3950    -1.3520 O.2   1 <1>  -0.5700 
  8 C       -2.7920     2.6450    -0.6670 C.ar  1 <1>   0.0860 
  9 C       -1.9810     4.7930     0.1640 C.ar  1 <1>   0.0280 
 10 C        0.3780     4.8800     0.7270 C.2   1 <1>  -0.2880 
 11 C        1.7280     3.3800    -0.7690 C.3   1 <1>  -0.1600 
 12 C        1.1630     2.7010     1.6020 C.3   1 <1>  -0.2400 
 13 C       -4.0720     3.1640    -0.8140 C.ar  1 <1>  -0.1500 
 14 C       -0.8160     5.5070     0.6460 C.2   1 <1>  -0.1670 
 15 C       -3.2760     5.2860     0.0060 C.ar  1 <1>  -0.1500 
 16 C        1.3050     4.0530    -2.0890 C.3   1 <1>  -0.2400 
 17 C       -4.3110     4.4870    -0.4750 C.ar  1 <1>  -0.1430 
 18 C       -1.0270     6.9720     1.0400 C.3   1 <1>  -0.0220 
 19 C       -5.7010     5.0790    -0.6250 C.3   1 <1>  -0.0970 
 20 C        0.2240     7.7010     1.5450 C.3   1 <1>  -0.2400 
 21 H        1.2700     5.3650     1.0750 H     1 <1>   0.1500 
 22 H        1.9960     2.3570    -0.9680 H     1 <1>   0.0800 
 23 H        2.6160     3.8690    -0.4100 H     1 <1>   0.0800 
 24 H        0.4100     2.7310     2.3690 H     1 <1>   0.0800 
 25 H        2.0480     3.1830     1.9770 H     1 <1>   0.0800 
 26 H        1.4070     1.6770     1.3860 H     1 <1>   0.0800 
 27 H       -4.8550     2.5270    -1.1890 H     1 <1>   0.1500 
 28 H       -3.4920     6.3080     0.2590 H     1 <1>   0.1500 
 29 H        0.4560     3.5520    -2.5180 H     1 <1>   0.0800 
 30 H        2.1140     4.0100    -2.7960 H     1 <1>   0.0800 
 31 H        1.0500     5.0860    -1.9270 H     1 <1>   0.0800 
 32 H       -1.7750     7.0150     1.8130 H     1 <1>   0.0800 
 33 H       -1.4030     7.5070     0.1850 H     1 <1>   0.0800 
 34 H       -6.3950     4.3460    -0.9970 H     1 <1>   0.0800 
 35 H       -5.6760     5.9050    -1.3140 H     1 <1>   0.0800 
 36 H       -6.0550     5.4320     0.3270 H     1 <1>   0.0800 
 37 H        0.6100     7.2180     2.4250 H     1 <1>   0.0800 
 38 H       -0.0220     8.7170     1.7960 H     1 <1>   0.0800 
 39 H        0.9840     7.7140     0.7840 H     1 <1>   0.0800 
@<TRIPOS>BOND
  1   1   2  2   
  2   2   3  am  
  3   2   4  1   
  4   3   5  1   
  5   3   6  1   
  6   4   7  2   
  7   4   8  1   
  8   5   8  ar  
  9   5   9  ar  
 10   6  10  1   
 11   6  11  1   
 12   6  12  1   
 13   8  13  ar  
 14   9  14  1   
 15   9  15  ar  
 16  10  14  2   
 17  10  21  1   
 18  11  16  1   
 19  11  22  1   
 20  11  23  1   
 21  12  24  1   
 22  12  25  1   
 23  12  26  1   
 24  13  17  ar  
 25  13  27  1   
 26  14  18  1   
 27  15  17  ar  
 28  15  28  1   
 29  16  29  1   
 30  16  30  1   
 31  16  31  1   
 32  17  19  1   
 33  18  20  1   
 34  18  32  1   
 35  18  33  1   
 36  19  34  1   
 37  19  35  1   
 38  19  36  1   
 39  20  37  1   
 40  20  38  1   
 41  20  39  1   
@<TRIPOS>SUBSTRUCTURE
  1 ****   5 GROUP 4 **** **** 0

# MOE 2024.06 (io_trps.svl 2023.06)
