@<TRIPOS>MOLECULE
1,7-Dimethyl-3-propyl-8-(tetrahydro-furan-2-ylmethyl)-1H,8H-imidazo[2,1-f]purine
49 52 1 0 0 
SMALL
USER_CHARGES


@<TRIPOS>ATOM
  1 O        1.4870    -0.4570     0.6470 O.2   1 <1>  -0.5750 
  2 C        2.2540     0.4830     0.6880 C.2   1 <1>   0.6860 
  3 N        1.7670     1.7880     0.7000 N.am  1 <1>  -0.4260 
  4 N        3.6240     0.2510     0.7180 N.am  1 <1>  -0.4420 
  5 C        2.6270     2.8780     0.7220 C.2   1 <1>   0.6990 
  6 C        0.2920     2.0200     0.6550 C.3   1 <1>   0.1330 
  7 C        4.4710     1.3390     0.7290 C.2   1 <1>   0.4200 
  8 C        4.1620    -1.1420     0.7160 C.3   1 <1>   0.0520 
  9 O        2.2010     4.0220     0.7340 O.2   1 <1>  -0.5750 
 10 C        4.0280     2.6200     0.7260 C.2   1 <1>   0.2700 
 11 C       -0.1790     2.1280    -0.7990 C.3   1 <1>  -0.1670 
 12 N        5.8330     1.3410     0.7240 N.pl3 1 <1>  -0.7040 
 13 N        5.1740     3.4320     0.7080 N.pl3 1 <1>  -0.6330 
 14 C       -1.6900     2.3650    -0.8730 C.3   1 <1>  -0.2470 
 15 C        6.2190     2.6150     0.6990 C.cat 1 <1>   1.0690 
 16 C        5.6720     4.7190     0.6670 C.2   1 <1>   0.2220 
 17 N        7.3770     3.2890     0.6580 N.pl3 1 <1>  -0.5720 
 18 C        7.0210     4.6310     0.6380 C.2   1 <1>   0.1570 
 19 C        8.7570     2.7100     0.7240 C.3   1 <1>   0.1600 
 20 C        8.0440     5.7520     0.5940 C.3   1 <1>  -0.1100 
 21 C        9.0490     1.6760    -0.3820 C.3   1 <1>   0.1930 
 22 O        8.2010     0.5730    -0.2780 O.3   1 <1>  -0.5650 
 23 C       10.4460     1.0780    -0.2950 C.3   1 <1>  -0.1670 
 24 C        8.7650    -0.5140    -0.9480 C.3   1 <1>   0.1120 
 25 C       10.2750    -0.2950    -0.9210 C.3   1 <1>  -0.1670 
 26 H        0.0460     2.9250     1.1850 H     1 <1>   0.0720 
 27 H       -0.2220     1.2100     1.1450 H     1 <1>   0.0720 
 28 H        4.3260    -1.4650    -0.2970 H     1 <1>   0.0720 
 29 H        3.4610    -1.8150     1.1820 H     1 <1>   0.0720 
 30 H        5.0870    -1.1920     1.2620 H     1 <1>   0.0720 
 31 H        0.0550     1.2160    -1.3220 H     1 <1>   0.0720 
 32 H        0.3240     2.9460    -1.2850 H     1 <1>   0.0720 
 33 H        6.5200     0.6020     0.5170 H     1 <1>   0.4450 
 34 H       -2.2230     1.5510    -0.4120 H     1 <1>   0.0720 
 35 H       -2.0010     2.4360    -1.9000 H     1 <1>   0.0720 
 36 H       -1.9540     3.2810    -0.3730 H     1 <1>   0.0720 
 37 H        5.0300     5.5880     0.6620 H     1 <1>   0.1430 
 38 H        8.8990     2.2450     1.6850 H     1 <1>   0.0720 
 39 H        9.4800     3.5010     0.6410 H     1 <1>   0.0720 
 40 H        8.6800     5.7110     1.4600 H     1 <1>   0.0720 
 41 H        7.5510     6.7080     0.5780 H     1 <1>   0.0720 
 42 H        8.6500     5.6670    -0.2910 H     1 <1>   0.0720 
 43 H        8.9040     2.1150    -1.3560 H     1 <1>   0.0720 
 44 H       10.7480     0.9760     0.7330 H     1 <1>   0.0720 
 45 H       11.1720     1.6770    -0.8170 H     1 <1>   0.0720 
 46 H        8.3940    -0.5210    -1.9590 H     1 <1>   0.0720 
 47 H        8.4810    -1.4220    -0.4430 H     1 <1>   0.0720 
 48 H       10.7680    -1.0570    -0.3420 H     1 <1>   0.0720 
 49 H       10.6630    -0.3180    -1.9250 H     1 <1>   0.0720 
@<TRIPOS>BOND
  1   1   2  2   
  2   2   3  am  
  3   2   4  am  
  4   3   5  am  
  5   3   6  1   
  6   4   7  1   
  7   4   8  1   
  8   5   9  2   
  9   5  10  1   
 10   6  11  1   
 11   6  26  1   
 12   6  27  1   
 13   7  10  2   
 14   7  12  1   
 15   8  28  1   
 16   8  29  1   
 17   8  30  1   
 18  10  13  1   
 19  11  14  1   
 20  11  31  1   
 21  11  32  1   
 22  12  15  ar  
 23  12  33  1   
 24  13  15  ar  
 25  13  16  1   
 26  14  34  1   
 27  14  35  1   
 28  14  36  1   
 29  15  17  ar  
 30  16  18  2   
 31  16  37  1   
 32  17  18  1   
 33  17  19  1   
 34  18  20  1   
 35  19  21  1   
 36  19  38  1   
 37  19  39  1   
 38  20  40  1   
 39  20  41  1   
 40  20  42  1   
 41  21  22  1   
 42  21  23  1   
 43  21  43  1   
 44  22  24  1   
 45  23  25  1   
 46  23  44  1   
 47  23  45  1   
 48  24  25  1   
 49  24  46  1   
 50  24  47  1   
 51  25  48  1   
 52  25  49  1   
@<TRIPOS>SUBSTRUCTURE
  1 ****   7 GROUP 4 **** **** 0

# MOE 2024.06 (io_trps.svl 2023.06)
