@<TRIPOS>MOLECULE
2-(8,8-Dimethyl-1-oxo-8,9-dihydro-1H,6H-7-oxa-11-thia-2,4,10-triaza-benzo[b]fluo
53 57 1 0 0 
SMALL
USER_CHARGES


@<TRIPOS>ATOM
  1 S        1.7160     0.3420     0.7100 S.3   1 <1>  -0.0800 
  2 C        0.4740     1.5760     0.4610 C.ar  1 <1>   0.2970 
  3 C        2.5520     0.8120    -0.7770 C.2   1 <1>  -0.0450 
  4 N       -0.5240     1.7420     1.3100 N.ar  1 <1>  -0.5670 
  5 C        0.7270     2.2820    -0.7090 C.ar  1 <1>   0.0000 
  6 C        3.7320     0.2500    -1.3050 C.2   1 <1>   0.7150 
  7 C        1.9080     1.8320    -1.3910 C.2   1 <1>   0.1250 
  8 C       -1.3570     2.7100     0.9590 C.ar  1 <1>   0.1660 
  9 C       -0.1640     3.2860    -1.0440 C.ar  1 <1>  -0.1500 
 10 O        4.3710    -0.6490    -0.7710 O.2   1 <1>  -0.5700 
 11 N        4.1660     0.7970    -2.4900 N.am  1 <1>  -0.4200 
 12 N        2.3900     2.3620    -2.5640 N.2   1 <1>  -0.5750 
 13 C       -1.2260     3.4970    -0.1870 C.ar  1 <1>  -0.1440 
 14 C       -2.5150     2.9620     1.9020 C.3   1 <1>  -0.0170 
 15 C        3.4670     1.8470    -3.0490 C.2   1 <1>   0.4500 
 16 C        5.4120     0.2940    -3.1410 C.3   1 <1>   0.2010 
 17 C       -2.2510     4.5760    -0.5150 C.3   1 <1>   0.2640 
 18 C       -3.6600     3.7340     1.2280 C.3   1 <1>   0.2800 
 19 C        6.6690     0.8390    -2.4740 C.2   1 <1>   0.5690 
 20 O       -3.1220     4.8270     0.5510 O.3   1 <1>  -0.5600 
 21 C       -4.6000     4.3230     2.2800 C.3   1 <1>  -0.2400 
 22 C       -4.4740     2.8610     0.2570 C.3   1 <1>  -0.2400 
 23 O        7.3330     1.6320    -3.0960 O.2   1 <1>  -0.5700 
 24 N        6.9650     0.4100    -1.2080 N.am  1 <1>  -0.5470 
 25 C        8.0080     0.7290    -0.3270 C.ar  1 <1>   0.1170 
 26 C        7.8500     0.4100     1.0170 C.ar  1 <1>  -0.1500 
 27 C        9.1940     1.3360    -0.7270 C.ar  1 <1>  -0.1500 
 28 C        8.8390     0.6900     1.9450 C.ar  1 <1>  -0.1440 
 29 C       10.1880     1.6180     0.1920 C.ar  1 <1>  -0.1500 
 30 C       10.0110     1.2960     1.5260 C.ar  1 <1>  -0.1500 
 31 C        8.6480     0.3360     3.4090 C.3   1 <1>  -0.0970 
 32 H       -0.0150     3.8630    -1.9410 H     1 <1>   0.1500 
 33 H       -2.1440     3.5230     2.7400 H     1 <1>   0.0800 
 34 H       -2.8860     2.0260     2.2770 H     1 <1>   0.0800 
 35 H        3.8680     2.2540    -3.9620 H     1 <1>   0.0600 
 36 H        5.4210     0.5820    -4.1770 H     1 <1>   0.0800 
 37 H        5.4330    -0.7800    -3.0990 H     1 <1>   0.0800 
 38 H       -2.8370     4.2890    -1.3700 H     1 <1>   0.0800 
 39 H       -1.7510     5.5020    -0.7410 H     1 <1>   0.0800 
 40 H       -4.0600     4.9830     2.9350 H     1 <1>   0.0800 
 41 H       -5.0410     3.5400     2.8700 H     1 <1>   0.0800 
 42 H       -5.3890     4.8770     1.8040 H     1 <1>   0.0800 
 43 H       -3.8400     2.3550    -0.4470 H     1 <1>   0.0800 
 44 H       -5.1900     3.4630    -0.2730 H     1 <1>   0.0800 
 45 H       -5.0090     2.1080     0.8070 H     1 <1>   0.0800 
 46 H        6.2450    -0.1940    -0.7910 H     1 <1>   0.3700 
 47 H        6.9400    -0.0630     1.3390 H     1 <1>   0.1500 
 48 H        9.3510     1.5900    -1.7590 H     1 <1>   0.1500 
 49 H       11.0990     2.0890    -0.1320 H     1 <1>   0.1500 
 50 H       10.7900     1.5190     2.2350 H     1 <1>   0.1500 
 51 H        7.6040     0.2170     3.6390 H     1 <1>   0.0800 
 52 H        9.0460     1.1150     4.0340 H     1 <1>   0.0800 
 53 H        9.1590    -0.5840     3.6300 H     1 <1>   0.0800 
@<TRIPOS>BOND
  1   1   2  1   
  2   1   3  1   
  3   2   4  ar  
  4   2   5  ar  
  5   3   6  1   
  6   3   7  2   
  7   4   8  ar  
  8   5   7  1   
  9   5   9  ar  
 10   6  10  2   
 11   6  11  am  
 12   7  12  1   
 13   8  13  ar  
 14   8  14  1   
 15   9  13  ar  
 16   9  32  1   
 17  11  15  1   
 18  11  16  1   
 19  12  15  2   
 20  13  17  1   
 21  14  18  1   
 22  14  33  1   
 23  14  34  1   
 24  15  35  1   
 25  16  19  1   
 26  16  36  1   
 27  16  37  1   
 28  17  20  1   
 29  17  38  1   
 30  17  39  1   
 31  18  20  1   
 32  18  21  1   
 33  18  22  1   
 34  19  23  2   
 35  19  24  am  
 36  21  40  1   
 37  21  41  1   
 38  21  42  1   
 39  22  43  1   
 40  22  44  1   
 41  22  45  1   
 42  24  25  1   
 43  24  46  1   
 44  25  26  ar  
 45  25  27  ar  
 46  26  28  ar  
 47  26  47  1   
 48  27  29  ar  
 49  27  48  1   
 50  28  30  ar  
 51  28  31  1   
 52  29  30  ar  
 53  29  49  1   
 54  30  50  1   
 55  31  51  1   
 56  31  52  1   
 57  31  53  1   
@<TRIPOS>SUBSTRUCTURE
  1 ****   3 GROUP 4 **** **** 0

# MOE 2024.06 (io_trps.svl 2023.06)
