@<TRIPOS>MOLECULE
4-Morpholin-4-yl-piperidine-4-carboxylic acid amide
35 36 1 0 0 
SMALL
USER_CHARGES


@<TRIPOS>ATOM
  1 O       -1.0650    -0.7480     2.1690 O.2   1 <1>  -0.5700 
  2 C       -0.4770    -1.7440     1.8220 C.2   1 <1>   0.5690 
  3 N        0.7070    -2.0340     2.4010 N.am  1 <1>  -0.8000 
  4 C       -1.1410    -2.6440     0.7260 C.3   1 <1>   0.3310 
  5 N       -0.2660    -3.7040     0.0870 N.3   1 <1>  -0.8100 
  6 C       -2.3910    -3.3000     1.3790 C.3   1 <1>  -0.1600 
  7 C       -1.6120    -1.7250    -0.4410 C.3   1 <1>  -0.1600 
  8 C        0.9410    -3.1430    -0.6030 C.3   1 <1>   0.1100 
  9 C        0.1300    -4.8680     0.9420 C.3   1 <1>   0.1100 
 10 C       -3.4460    -3.6190     0.3300 C.3   1 <1>   0.3430 
 11 C       -3.0250    -1.1940    -0.2250 C.3   1 <1>   0.3430 
 12 C        1.8220    -4.2260    -1.2450 C.3   1 <1>   0.1200 
 13 C        1.0760    -5.8490     0.2280 C.3   1 <1>   0.1200 
 14 N       -3.9890    -2.3390    -0.2270 N.4   1 <1>  -0.9060 
 15 O        2.1770    -5.1730    -0.2880 O.3   1 <1>  -0.5600 
 16 H        1.0990    -1.4090     3.1090 H     1 <1>   0.3700 
 17 H        1.2930    -2.8190     2.1090 H     1 <1>   0.3700 
 18 H       -2.8340    -2.6270     2.0920 H     1 <1>   0.0800 
 19 H       -2.1480    -4.1730     1.9480 H     1 <1>   0.0800 
 20 H       -1.6020    -2.2540    -1.3780 H     1 <1>   0.0800 
 21 H       -0.9430    -0.8870    -0.5330 H     1 <1>   0.0800 
 22 H        1.5560    -2.5930     0.0850 H     1 <1>   0.0800 
 23 H        0.6500    -2.4670    -1.3860 H     1 <1>   0.0800 
 24 H       -0.7350    -5.4400     1.2170 H     1 <1>   0.0800 
 25 H        0.6090    -4.5360     1.8440 H     1 <1>   0.0800 
 26 H       -4.2420    -4.2040     0.7620 H     1 <1>   0.0800 
 27 H       -2.9830    -4.1970    -0.4560 H     1 <1>   0.0800 
 28 H       -3.2810    -0.4870    -0.9990 H     1 <1>   0.0800 
 29 H       -3.0610    -0.6820     0.7250 H     1 <1>   0.0800 
 30 H        2.7290    -3.7920    -1.6290 H     1 <1>   0.0800 
 31 H        1.3050    -4.7180    -2.0510 H     1 <1>   0.0800 
 32 H        0.5690    -6.3530    -0.5770 H     1 <1>   0.0800 
 33 H        1.4400    -6.5880     0.9200 H     1 <1>   0.0800 
 34 H       -4.8210    -2.0610     0.3090 H     1 <1>   0.4500 
 35 H       -4.3070    -2.5110    -1.1900 H     1 <1>   0.4500 
@<TRIPOS>BOND
  1   1   2  2   
  2   2   3  am  
  3   2   4  1   
  4   3  16  1   
  5   3  17  1   
  6   4   5  1   
  7   4   6  1   
  8   4   7  1   
  9   5   8  1   
 10   5   9  1   
 11   6  10  1   
 12   6  18  1   
 13   6  19  1   
 14   7  11  1   
 15   7  20  1   
 16   7  21  1   
 17   8  12  1   
 18   8  22  1   
 19   8  23  1   
 20   9  13  1   
 21   9  24  1   
 22   9  25  1   
 23  10  14  1   
 24  10  26  1   
 25  10  27  1   
 26  11  14  1   
 27  11  28  1   
 28  11  29  1   
 29  12  15  1   
 30  12  30  1   
 31  12  31  1   
 32  13  15  1   
 33  13  32  1   
 34  13  33  1   
 35  14  34  1   
 36  14  35  1   
@<TRIPOS>SUBSTRUCTURE
  1 ****   4 GROUP 4 **** **** 0

# MOE 2024.06 (io_trps.svl 2023.06)
