@<TRIPOS>MOLECULE
8-Cyclohexyl-1,7-dimethyl-3-(2-oxo-propyl)-1H,8H-imidazo[2,1-f]purine-2,4-dione
50 53 1 0 0 
SMALL
USER_CHARGES


@<TRIPOS>ATOM
  1 O        0.7140     0.1190    -0.2400 O.2   1 <1>  -0.5750 
  2 C        1.6880     0.7630     0.0900 C.2   1 <1>   0.6860 
  3 N        1.5220     2.0200     0.6560 N.am  1 <1>  -0.4260 
  4 N        2.9640     0.2480    -0.1090 N.am  1 <1>  -0.4420 
  5 C        2.6090     2.7670     1.0800 C.2   1 <1>   0.6990 
  6 C        0.2700     2.7700     0.3250 C.3   1 <1>   0.1940 
  7 C        4.0430     1.0470     0.2140 C.2   1 <1>   0.4210 
  8 C        3.1500    -1.0920    -0.7380 C.3   1 <1>   0.0520 
  9 O        2.4420     3.8210     1.6730 O.2   1 <1>  -0.5750 
 10 C        3.9110     2.2640     0.7970 C.2   1 <1>   0.2710 
 11 C        0.4190     3.4790    -1.0210 C.2   1 <1>   0.4430 
 12 N        5.3680     0.7840     0.0160 N.pl3 1 <1>  -0.7040 
 13 N        5.2110     2.7600     0.9700 N.pl3 1 <1>  -0.6330 
 14 O        1.4630     3.5060    -1.6090 O.2   1 <1>  -0.5750 
 15 C       -0.8130     4.1530    -1.5820 C.3   1 <1>  -0.1860 
 16 C        6.0380     1.8480     0.4780 C.cat 1 <1>   1.0690 
 17 C        5.9860     3.8180     1.3980 C.2   1 <1>   0.2220 
 18 N        7.3150     2.2390     0.5680 N.pl3 1 <1>  -0.5720 
 19 C        7.2770     3.4980     1.1540 C.2   1 <1>   0.1580 
 20 C        8.5170     1.4950     0.1210 C.3   1 <1>   0.2410 
 21 C        8.5240     4.3150     1.4350 C.3   1 <1>  -0.1090 
 22 C        8.4720     1.2790    -1.3990 C.3   1 <1>  -0.1670 
 23 C        8.6360     0.1690     0.8870 C.3   1 <1>  -0.1670 
 24 C        9.6840     0.4670    -1.8740 C.3   1 <1>  -0.1670 
 25 C        9.8480    -0.6370     0.4010 C.3   1 <1>  -0.1670 
 26 C        9.7940    -0.8620    -1.1150 C.3   1 <1>  -0.1670 
 27 H        0.0650     3.4980     1.0900 H     1 <1>   0.0720 
 28 H       -0.5670     2.0960     0.2840 H     1 <1>   0.0720 
 29 H        2.3010    -1.7240    -0.5340 H     1 <1>   0.0720 
 30 H        4.0270    -1.5760    -0.3450 H     1 <1>   0.0720 
 31 H        3.2460    -0.9810    -1.8040 H     1 <1>   0.0720 
 32 H        5.7980    -0.0220    -0.4310 H     1 <1>   0.4450 
 33 H       -1.5890     3.4270    -1.7420 H     1 <1>   0.0720 
 34 H       -0.5770     4.6190    -2.5210 H     1 <1>   0.0720 
 35 H       -1.1640     4.9070    -0.9010 H     1 <1>   0.0720 
 36 H        5.5590     4.7080     1.8380 H     1 <1>   0.1430 
 37 H        9.3950     2.0790     0.3410 H     1 <1>   0.0720 
 38 H        9.0530     4.5140     0.5200 H     1 <1>   0.0720 
 39 H        9.1740     3.7810     2.1060 H     1 <1>   0.0720 
 40 H        8.2640     5.2550     1.8890 H     1 <1>   0.0720 
 41 H        8.4760     2.2320    -1.9000 H     1 <1>   0.0720 
 42 H        7.5830     0.7480    -1.6840 H     1 <1>   0.0720 
 43 H        7.7590    -0.4340     0.7470 H     1 <1>   0.0720 
 44 H        8.7510     0.3690     1.9380 H     1 <1>   0.0720 
 45 H       10.5850     1.0380    -1.7180 H     1 <1>   0.0720 
 46 H        9.6020     0.2730    -2.9300 H     1 <1>   0.0720 
 47 H        9.8790    -1.5880     0.9050 H     1 <1>   0.0720 
 48 H       10.7550    -0.1090     0.6480 H     1 <1>   0.0720 
 49 H       10.6830    -1.3800    -1.4310 H     1 <1>   0.0720 
 50 H        8.9510    -1.4860    -1.3580 H     1 <1>   0.0720 
@<TRIPOS>BOND
  1   1   2  2   
  2   2   3  am  
  3   2   4  am  
  4   3   5  am  
  5   3   6  1   
  6   4   7  1   
  7   4   8  1   
  8   5   9  2   
  9   5  10  1   
 10   6  11  1   
 11   6  27  1   
 12   6  28  1   
 13   7  10  2   
 14   7  12  1   
 15   8  29  1   
 16   8  30  1   
 17   8  31  1   
 18  10  13  1   
 19  11  14  2   
 20  11  15  1   
 21  12  16  ar  
 22  12  32  1   
 23  13  16  ar  
 24  13  17  1   
 25  15  33  1   
 26  15  34  1   
 27  15  35  1   
 28  16  18  ar  
 29  17  19  2   
 30  17  36  1   
 31  18  19  1   
 32  18  20  1   
 33  19  21  1   
 34  20  22  1   
 35  20  23  1   
 36  20  37  1   
 37  21  38  1   
 38  21  39  1   
 39  21  40  1   
 40  22  24  1   
 41  22  41  1   
 42  22  42  1   
 43  23  25  1   
 44  23  43  1   
 45  23  44  1   
 46  24  26  1   
 47  24  45  1   
 48  24  46  1   
 49  25  26  1   
 50  25  47  1   
 51  25  48  1   
 52  26  49  1   
 53  26  50  1   
@<TRIPOS>SUBSTRUCTURE
  1 ****   7 GROUP 4 **** **** 0

# MOE 2024.06 (io_trps.svl 2023.06)
