@<TRIPOS>MOLECULE
4-Methyl-N-(1-methyl-2-pyrrolidin-1-ylmethyl-1H-benzoimidazol-5-yl)-benzenesulfo
52 55 1 0 0 
SMALL
USER_CHARGES


@<TRIPOS>ATOM
  1 S        0.5810     0.4590     1.5100 S.o2  1 <1>   1.4470 
  2 O       -0.0210     1.7350     1.8110 O.2   1 <1>  -0.6500 
  3 O        1.4540    -0.1810     2.4660 O.2   1 <1>  -0.6500 
  4 N        1.5610     0.7990     0.1480 N.am  1 <1>  -0.7570 
  5 C       -0.6460    -0.6920     0.8360 C.ar  1 <1>  -0.0090 
  6 C        2.4590    -0.1310    -0.3530 C.ar  1 <1>   0.1990 
  7 C       -1.7840    -0.2310     0.1840 C.ar  1 <1>  -0.1500 
  8 C       -0.4630    -2.0670     0.9240 C.ar  1 <1>  -0.1500 
  9 C        3.7560    -0.1730     0.1100 C.ar  1 <1>  -0.1500 
 10 C        2.0370    -1.0440    -1.3320 C.ar  1 <1>  -0.1500 
 11 C       -2.7080    -1.1090    -0.3560 C.ar  1 <1>  -0.1500 
 12 C       -1.3830    -2.9510     0.3860 C.ar  1 <1>  -0.1500 
 13 C        4.6290    -1.1290    -0.3970 C.ar  1 <1>   0.2270 
 14 C        2.8960    -1.9920    -1.8410 C.ar  1 <1>  -0.1500 
 15 C       -2.5130    -2.4750    -0.2570 C.ar  1 <1>  -0.1430 
 16 N        5.9290    -1.3590    -0.0720 N.2   1 <1>  -0.5650 
 17 C        4.2070    -2.0270    -1.3580 C.ar  1 <1>  -0.1520 
 18 C       -3.5250    -3.4390    -0.8480 C.3   1 <1>  -0.0970 
 19 C        6.2760    -2.3620    -0.8120 C.2   1 <1>   0.0060 
 20 N        5.2810    -2.8200    -1.6260 N.pl3 1 <1>   0.0480 
 21 C        7.6680    -2.9800    -0.7490 C.3   1 <1>   0.5230 
 22 C        5.2690    -3.9390    -2.5930 C.3   1 <1>   0.0160 
 23 N        8.4890    -2.1200     0.1390 N.4   1 <1>  -0.9590 
 24 C        9.1930    -1.0220    -0.5530 C.3   1 <1>   0.3430 
 25 C        9.4620    -2.8020     1.0130 C.3   1 <1>   0.3430 
 26 C       10.2240    -0.5450     0.4610 C.3   1 <1>  -0.1600 
 27 C       10.3850    -1.6830     1.4770 C.3   1 <1>  -0.1600 
 28 H        1.9120     1.7440     0.2630 H     1 <1>   0.4200 
 29 H       -1.9490     0.8300     0.0980 H     1 <1>   0.1500 
 30 H        0.4130    -2.4520     1.4190 H     1 <1>   0.1500 
 31 H        4.1040     0.5050     0.8650 H     1 <1>   0.1500 
 32 H        1.0200    -0.9890    -1.6800 H     1 <1>   0.1500 
 33 H       -3.5800    -0.7220    -0.8540 H     1 <1>   0.1500 
 34 H       -1.2140    -4.0100     0.4700 H     1 <1>   0.1500 
 35 H        2.5660    -2.6900    -2.5900 H     1 <1>   0.1500 
 36 H       -4.5150    -3.0230    -0.7960 H     1 <1>   0.0800 
 37 H       -3.5210    -4.3690    -0.3090 H     1 <1>   0.0800 
 38 H       -3.2840    -3.6340    -1.8780 H     1 <1>   0.0800 
 39 H        8.1050    -3.0380    -1.7320 H     1 <1>   0.0800 
 40 H        7.5900    -3.9720    -0.3350 H     1 <1>   0.0800 
 41 H        4.9550    -3.5710    -3.5540 H     1 <1>   0.0800 
 42 H        4.5720    -4.6870    -2.2580 H     1 <1>   0.0800 
 43 H        6.2450    -4.3750    -2.6830 H     1 <1>   0.0800 
 44 H        7.7680    -1.6560     0.7250 H     1 <1>   0.4500 
 45 H        8.5120    -0.2330    -0.8340 H     1 <1>   0.0800 
 46 H        9.6940    -1.3980    -1.4310 H     1 <1>   0.0800 
 47 H       10.0270    -3.5230     0.4430 H     1 <1>   0.0800 
 48 H        8.9790    -3.2920     1.8440 H     1 <1>   0.0800 
 49 H        9.8650     0.3450     0.9490 H     1 <1>   0.0800 
 50 H       11.1530    -0.3130    -0.0310 H     1 <1>   0.0800 
 51 H       11.4020    -2.0310     1.5330 H     1 <1>   0.0800 
 52 H       10.0840    -1.3520     2.4570 H     1 <1>   0.0800 
@<TRIPOS>BOND
  1   1   2  2   
  2   1   3  2   
  3   1   4  am  
  4   1   5  1   
  5   4   6  1   
  6   4  28  1   
  7   5   7  ar  
  8   5   8  ar  
  9   6   9  ar  
 10   6  10  ar  
 11   7  11  ar  
 12   7  29  1   
 13   8  12  ar  
 14   8  30  1   
 15   9  13  ar  
 16   9  31  1   
 17  10  14  ar  
 18  10  32  1   
 19  11  15  ar  
 20  11  33  1   
 21  12  15  ar  
 22  12  34  1   
 23  13  16  1   
 24  13  17  ar  
 25  14  17  ar  
 26  14  35  1   
 27  15  18  1   
 28  16  19  2   
 29  17  20  1   
 30  18  36  1   
 31  18  37  1   
 32  18  38  1   
 33  19  20  1   
 34  19  21  1   
 35  20  22  1   
 36  21  23  1   
 37  21  39  1   
 38  21  40  1   
 39  22  41  1   
 40  22  42  1   
 41  22  43  1   
 42  23  24  1   
 43  23  25  1   
 44  23  44  1   
 45  24  26  1   
 46  24  45  1   
 47  24  46  1   
 48  25  27  1   
 49  25  47  1   
 50  25  48  1   
 51  26  27  1   
 52  26  49  1   
 53  26  50  1   
 54  27  51  1   
 55  27  52  1   
@<TRIPOS>SUBSTRUCTURE
  1 ****   9 GROUP 4 **** **** 0

# MOE 2024.06 (io_trps.svl 2023.06)
