@<TRIPOS>MOLECULE
3-Benzo[1,3]dioxol-5-yl-1-(5-hydroxy-3-methyl-5-trifluoromethyl-4,5-dihydro-pyra
39 41 1 0 0 
SMALL
USER_CHARGES


@<TRIPOS>ATOM
  1 F       -0.5020    -0.2850    -0.1430 F     1 <1>  -0.3400 
  2 C       -1.4390    -1.2270    -0.0470 C.3   1 <1>   1.0200 
  3 F       -1.8810    -1.4110    -1.2900 F     1 <1>  -0.3400 
  4 F       -0.7890    -2.3410     0.2740 F     1 <1>  -0.3400 
  5 C       -2.5990    -0.8220     0.9570 C.3   1 <1>   0.5800 
  6 O       -2.2030    -0.7650     2.2990 O.3   1 <1>  -0.6800 
  7 N       -3.7870    -1.7290     0.9100 N.am  1 <1>  -0.2980 
  8 C       -3.2180     0.5410     0.5990 C.3   1 <1>  -0.0990 
  9 N       -4.9060    -1.0620     0.4480 N.2   1 <1>  -0.5120 
 10 C       -3.7460    -3.0240     1.3820 C.2   1 <1>   0.5690 
 11 C       -4.6380     0.1540     0.2810 C.2   1 <1>   0.3280 
 12 O       -2.7720    -3.4610     1.9490 O.2   1 <1>  -0.5700 
 13 C       -4.9500    -3.9320     1.2100 C.3   1 <1>  -0.0990 
 14 C       -5.6040     1.2110    -0.2020 C.3   1 <1>  -0.1790 
 15 C       -5.0290    -4.4870    -0.2170 C.3   1 <1>  -0.0170 
 16 C       -6.2300    -5.4070    -0.3660 C.ar  1 <1>  -0.1430 
 17 C       -6.0870    -6.7780    -0.1720 C.ar  1 <1>  -0.1500 
 18 C       -7.4760    -4.8770    -0.6970 C.ar  1 <1>  -0.1500 
 19 C       -7.2020    -7.5780    -0.3190 C.ar  1 <1>   0.0830 
 20 C       -8.5880    -5.6980    -0.8410 C.ar  1 <1>  -0.1500 
 21 O       -7.2960    -8.9060    -0.1820 O.3   1 <1>  -0.3630 
 22 C       -8.4190    -7.0540    -0.6450 C.ar  1 <1>   0.0830 
 23 C       -8.6560    -9.2480    -0.4380 C.3   1 <1>   0.4000 
 24 O       -9.3340    -8.0270    -0.7290 O.3   1 <1>  -0.3630 
 25 H       -2.1060    -1.6960     2.6090 H     1 <1>   0.4000 
 26 H       -2.7580     0.9870    -0.2630 H     1 <1>   0.0800 
 27 H       -3.1860     1.2280     1.4250 H     1 <1>   0.0800 
 28 H       -5.8460    -3.3860     1.4410 H     1 <1>   0.0800 
 29 H       -4.8730    -4.7470     1.9060 H     1 <1>   0.0800 
 30 H       -5.2490     1.6450    -1.1190 H     1 <1>   0.0800 
 31 H       -5.7060     1.9810     0.5400 H     1 <1>   0.0800 
 32 H       -6.5680     0.7700    -0.3780 H     1 <1>   0.0800 
 33 H       -4.1260    -5.0270    -0.4440 H     1 <1>   0.0800 
 34 H       -5.1100    -3.6750    -0.9190 H     1 <1>   0.0800 
 35 H       -5.1420    -7.2190     0.0860 H     1 <1>   0.1500 
 36 H       -7.5850    -3.8160    -0.8440 H     1 <1>   0.1500 
 37 H       -9.5540    -5.3030    -1.0960 H     1 <1>   0.1500 
 38 H       -9.0860    -9.6990     0.4380 H     1 <1>   0.0800 
 39 H       -8.7100    -9.9010    -1.2910 H     1 <1>   0.0800 
@<TRIPOS>BOND
  1   1   2  1   
  2   2   3  1   
  3   2   4  1   
  4   2   5  1   
  5   5   6  1   
  6   5   7  1   
  7   5   8  1   
  8   6  25  1   
  9   7   9  1   
 10   7  10  am  
 11   8  11  1   
 12   8  26  1   
 13   8  27  1   
 14   9  11  2   
 15  10  12  2   
 16  10  13  1   
 17  11  14  1   
 18  13  15  1   
 19  13  28  1   
 20  13  29  1   
 21  14  30  1   
 22  14  31  1   
 23  14  32  1   
 24  15  16  1   
 25  15  33  1   
 26  15  34  1   
 27  16  17  ar  
 28  16  18  ar  
 29  17  19  ar  
 30  17  35  1   
 31  18  20  ar  
 32  18  36  1   
 33  19  21  1   
 34  19  22  ar  
 35  20  22  ar  
 36  20  37  1   
 37  21  23  1   
 38  22  24  1   
 39  23  24  1   
 40  23  38  1   
 41  23  39  1   
@<TRIPOS>SUBSTRUCTURE
  1 ****  15 GROUP 4 **** **** 0

# MOE 2024.06 (io_trps.svl 2023.06)
