@<TRIPOS>MOLECULE
1-[3-(4-Chloro-phenyl)-[1,2,4]oxadiazol-5-ylmethyl]-piperidine
36 38 1 0 0 
SMALL
USER_CHARGES


@<TRIPOS>ATOM
  1 CL       0.7100     1.6620    -1.3500 Cl    1 <1>  -0.1770 
  2 C        2.2970     1.2340    -0.7670 C.ar  1 <1>   0.1770 
  3 C        2.6170     1.4500     0.5590 C.ar  1 <1>  -0.1500 
  4 C        3.2160     0.6820    -1.6370 C.ar  1 <1>  -0.1500 
  5 C        3.8780     1.1090     1.0150 C.ar  1 <1>  -0.1500 
  6 C        4.4740     0.3440    -1.1690 C.ar  1 <1>  -0.1500 
  7 C        4.8390     0.5490     0.1660 C.ar  1 <1>   0.0540 
  8 C        6.1610     0.1970     0.6600 C.2   1 <1>   0.4620 
  9 N        6.5570     0.2850     1.8810 N.2   1 <1>  -0.4100 
 10 N        7.1380    -0.2620    -0.1340 N.2   1 <1>  -0.5650 
 11 O        7.7830    -0.1230     1.9410 O.3   1 <1>  -0.0190 
 12 C        8.0700    -0.4360     0.7090 C.2   1 <1>   0.2980 
 13 C        9.4770    -0.9360     0.4040 C.3   1 <1>   0.5230 
 14 N       10.4750     0.1880     0.3160 N.4   1 <1>  -0.9590 
 15 C       10.1000     1.1600    -0.7590 C.3   1 <1>   0.3430 
 16 C       11.8630    -0.3280     0.1380 C.3   1 <1>   0.3430 
 17 C       11.0580     2.3520    -0.7290 C.3   1 <1>  -0.1600 
 18 C       12.8540     0.8370     0.1870 C.3   1 <1>  -0.1600 
 19 C       12.5220     1.9110    -0.8580 C.3   1 <1>  -0.1600 
 20 H        1.8860     1.8800     1.2200 H     1 <1>   0.1500 
 21 H        2.9450     0.5210    -2.6650 H     1 <1>   0.1500 
 22 H        4.1200     1.2800     2.0510 H     1 <1>   0.1500 
 23 H        5.1830    -0.0880    -1.8550 H     1 <1>   0.1500 
 24 H        9.4500    -1.4670    -0.5330 H     1 <1>   0.0800 
 25 H        9.7680    -1.6290     1.1740 H     1 <1>   0.0800 
 26 H       10.4470     0.7070     1.2050 H     1 <1>   0.4500 
 27 H        9.0910     1.5130    -0.6130 H     1 <1>   0.0800 
 28 H       10.1540     0.6810    -1.7230 H     1 <1>   0.0800 
 29 H       11.9490    -0.8290    -0.8130 H     1 <1>   0.0800 
 30 H       12.1040    -1.0320     0.9190 H     1 <1>   0.0800 
 31 H       10.9180     2.9020     0.1860 H     1 <1>   0.0800 
 32 H       10.8150     3.0180    -1.5410 H     1 <1>   0.0800 
 33 H       13.8470     0.4620     0.0050 H     1 <1>   0.0800 
 34 H       12.8520     1.2700     1.1720 H     1 <1>   0.0800 
 35 H       13.1730     2.7610    -0.7290 H     1 <1>   0.0800 
 36 H       12.6930     1.5170    -1.8460 H     1 <1>   0.0800 
@<TRIPOS>BOND
  1   1   2  1   
  2   2   3  ar  
  3   2   4  ar  
  4   3   5  ar  
  5   3  20  1   
  6   4   6  ar  
  7   4  21  1   
  8   5   7  ar  
  9   5  22  1   
 10   6   7  ar  
 11   6  23  1   
 12   7   8  1   
 13   8   9  2   
 14   8  10  1   
 15   9  11  1   
 16  10  12  2   
 17  11  12  1   
 18  12  13  1   
 19  13  14  1   
 20  13  24  1   
 21  13  25  1   
 22  14  15  1   
 23  14  16  1   
 24  14  26  1   
 25  15  17  1   
 26  15  27  1   
 27  15  28  1   
 28  16  18  1   
 29  16  29  1   
 30  16  30  1   
 31  17  19  1   
 32  17  31  1   
 33  17  32  1   
 34  18  19  1   
 35  18  33  1   
 36  18  34  1   
 37  19  35  1   
 38  19  36  1   
@<TRIPOS>SUBSTRUCTURE
  1 ****  10 GROUP 4 **** **** 0

# MOE 2024.06 (io_trps.svl 2023.06)
