@<TRIPOS>MOLECULE
Ethanesulfonic acid [3-(5-furan-2-yl-1-propionyl-4,5-dihydro-1H-pyrazol-3-yl)-ph
47 49 1 0 0 
SMALL
USER_CHARGES


@<TRIPOS>ATOM
  1 S       -0.0970    -0.0930    -1.1270 S.o2  1 <1>   1.3330 
  2 O        0.6620     1.0890    -1.4540 O.2   1 <1>  -0.6500 
  3 O       -0.0910    -1.2390    -1.9990 O.2   1 <1>  -0.6500 
  4 N       -1.7620     0.3240    -1.0570 N.am  1 <1>  -0.7570 
  5 C        0.2820    -0.6590     0.5400 C.3   1 <1>  -0.0550 
  6 C       -2.4080     1.4840    -0.6390 C.ar  1 <1>   0.1990 
  7 C        0.1630     0.3960     1.6560 C.3   1 <1>  -0.2400 
  8 C       -3.7960     1.5020    -0.6500 C.ar  1 <1>  -0.1500 
  9 C       -1.7360     2.6220    -0.2060 C.ar  1 <1>  -0.1500 
 10 C       -4.5390     2.6110    -0.2370 C.ar  1 <1>   0.0860 
 11 C       -2.4390     3.7350     0.2130 C.ar  1 <1>  -0.1500 
 12 C       -5.9860     2.6370    -0.2440 C.2   1 <1>   0.3030 
 13 C       -3.8200     3.7260     0.1980 C.ar  1 <1>  -0.1500 
 14 N       -6.7200     3.5630     0.2220 N.2   1 <1>  -0.5120 
 15 C       -6.7930     1.5070    -0.8420 C.3   1 <1>  -0.0990 
 16 N       -8.0580     3.2730     0.0690 N.am  1 <1>  -0.2980 
 17 C       -8.2290     1.9880    -0.6480 C.3   1 <1>   0.4000 
 18 C       -9.1020     4.0940     0.4870 C.2   1 <1>   0.5690 
 19 C       -9.0610     0.9640     0.1200 C.2   1 <1>  -0.0400 
 20 O       -8.9100     5.1410     1.0620 O.2   1 <1>  -0.5700 
 21 C      -10.5560     3.6940     0.2190 C.3   1 <1>  -0.0990 
 22 O       -8.7100     0.6240     1.3470 O.3   1 <1>  -0.2800 
 23 C      -10.1720     0.2880    -0.2530 C.2   1 <1>  -0.1500 
 24 C      -11.5660     4.8550     0.2840 C.3   1 <1>  -0.2400 
 25 C       -9.5810    -0.2620     1.7840 C.2   1 <1>  -0.0100 
 26 C      -10.5130    -0.5160     0.8420 C.2   1 <1>  -0.1500 
 27 H       -2.2900    -0.3600    -1.5900 H     1 <1>   0.4200 
 28 H        1.2870    -1.0350     0.5440 H     1 <1>   0.0800 
 29 H       -0.3630    -1.4820     0.7800 H     1 <1>   0.0800 
 30 H        0.7910     1.2420     1.4360 H     1 <1>   0.0800 
 31 H        0.4700    -0.0250     2.5960 H     1 <1>   0.0800 
 32 H       -0.8550     0.7320     1.7500 H     1 <1>   0.0800 
 33 H       -4.3040     0.6200    -0.9850 H     1 <1>   0.1500 
 34 H       -0.6640     2.6580    -0.1930 H     1 <1>   0.1500 
 35 H       -1.9110     4.6120     0.5480 H     1 <1>   0.1500 
 36 H       -4.3560     4.6000     0.5300 H     1 <1>   0.1500 
 37 H       -6.6130     0.5910    -0.3110 H     1 <1>   0.0800 
 38 H       -6.5750     1.3810    -1.8850 H     1 <1>   0.0800 
 39 H       -8.6760     2.1850    -1.6050 H     1 <1>   0.0800 
 40 H      -10.8350     2.9570     0.9490 H     1 <1>   0.0800 
 41 H      -10.6310     3.2540    -0.7560 H     1 <1>   0.0800 
 42 H      -10.7150     0.3270    -1.1810 H     1 <1>   0.1500 
 43 H      -11.5650     5.2920     1.2680 H     1 <1>   0.0800 
 44 H      -12.5580     4.5020     0.0660 H     1 <1>   0.0800 
 45 H      -11.3020     5.6180    -0.4270 H     1 <1>   0.0800 
 46 H       -9.4620    -0.6590     2.7770 H     1 <1>   0.1500 
 47 H      -11.3530    -1.1870     0.8910 H     1 <1>   0.1500 
@<TRIPOS>BOND
  1   1   2  2   
  2   1   3  2   
  3   1   4  am  
  4   1   5  1   
  5   4   6  1   
  6   4  27  1   
  7   5   7  1   
  8   5  28  1   
  9   5  29  1   
 10   6   8  ar  
 11   6   9  ar  
 12   7  30  1   
 13   7  31  1   
 14   7  32  1   
 15   8  10  ar  
 16   8  33  1   
 17   9  11  ar  
 18   9  34  1   
 19  10  12  1   
 20  10  13  ar  
 21  11  13  ar  
 22  11  35  1   
 23  12  14  2   
 24  12  15  1   
 25  13  36  1   
 26  14  16  1   
 27  15  17  1   
 28  15  37  1   
 29  15  38  1   
 30  16  17  1   
 31  16  18  am  
 32  17  19  1   
 33  17  39  1   
 34  18  20  2   
 35  18  21  1   
 36  19  22  1   
 37  19  23  2   
 38  21  24  1   
 39  21  40  1   
 40  21  41  1   
 41  22  25  1   
 42  23  26  1   
 43  23  42  1   
 44  24  43  1   
 45  24  44  1   
 46  24  45  1   
 47  25  26  2   
 48  25  46  1   
 49  26  47  1   
@<TRIPOS>SUBSTRUCTURE
  1 ****  12 GROUP 4 **** **** 0

# MOE 2024.06 (io_trps.svl 2023.06)
