@<TRIPOS>MOLECULE
4-(2,5-Dimethyl-phenyl)-2-oxo-6-piperidin-1-ylmethyl-1,2,3,4-tetrahydro-pyrimidi
54 56 1 0 0 
SMALL
USER_CHARGES


@<TRIPOS>ATOM
  1 O        0.6310     0.7890     2.4500 O.2   1 <1>  -0.5700 
  2 C        0.3410     1.9380     2.2240 C.2   1 <1>   0.6900 
  3 N       -0.9510     2.2610     1.9650 N.am  1 <1>  -0.5390 
  4 N        1.2700     2.9030     2.1910 N.am  1 <1>  -0.7300 
  5 C       -1.3750     3.5370     1.6160 C.2   1 <1>  -0.0290 
  6 C        1.0090     4.3010     1.8050 C.3   1 <1>   0.5020 
  7 C       -0.4780     4.5600     1.5300 C.2   1 <1>  -0.1240 
  8 C       -2.8750     3.6850     1.3470 C.3   1 <1>   0.4810 
  9 C        1.9100     4.6760     0.6190 C.ar  1 <1>  -0.1440 
 10 C       -0.7790     5.9170     1.1930 C.2   1 <1>   0.7060 
 11 N       -3.1920     3.0720     0.0260 N.4   1 <1>  -0.9590 
 12 C        1.9440     4.0030    -0.6070 C.ar  1 <1>  -0.1430 
 13 C        2.7460     5.7730     0.7990 C.ar  1 <1>  -0.1500 
 14 O       -1.7690     6.2180     0.5530 O.2   1 <1>  -0.5700 
 15 O        0.0310     6.8880     1.6220 O.3   1 <1>  -0.4300 
 16 C       -2.7260     3.9530    -1.0890 C.3   1 <1>   0.3430 
 17 C       -4.6440     2.7640    -0.0990 C.3   1 <1>   0.3430 
 18 C        2.7960     4.4530    -1.6060 C.ar  1 <1>  -0.1500 
 19 C        1.1090     2.7700    -0.9270 C.3   1 <1>  -0.0970 
 20 C        3.5900     6.2180    -0.2020 C.ar  1 <1>  -0.1430 
 21 C       -0.1760     8.2450     1.2790 C.3   1 <1>   0.0400 
 22 C       -2.9340     3.2410    -2.4260 C.3   1 <1>  -0.1600 
 23 C       -4.8980     2.0230    -1.4140 C.3   1 <1>  -0.1600 
 24 C        3.6110     5.5500    -1.4090 C.ar  1 <1>  -0.1500 
 25 C        4.4850     7.4220     0.0280 C.3   1 <1>  -0.0970 
 26 C       -4.3970     2.8230    -2.6240 C.3   1 <1>  -0.1600 
 27 H       -1.5710     1.4660     2.1280 H     1 <1>   0.3700 
 28 H        2.2490     2.6200     2.2310 H     1 <1>   0.3700 
 29 H        1.2900     4.9050     2.6520 H     1 <1>   0.0800 
 30 H       -3.1730     4.7190     1.3560 H     1 <1>   0.0800 
 31 H       -3.4160     3.1790     2.1290 H     1 <1>   0.0800 
 32 H       -2.6640     2.1950    -0.0430 H     1 <1>   0.4500 
 33 H        2.7460     6.3050     1.7350 H     1 <1>   0.1500 
 34 H       -1.6810     4.1900    -0.9680 H     1 <1>   0.0800 
 35 H       -3.2790     4.8790    -1.0800 H     1 <1>   0.0800 
 36 H       -5.2140     3.6800    -0.0890 H     1 <1>   0.0800 
 37 H       -4.9690     2.1510     0.7260 H     1 <1>   0.0800 
 38 H        2.8410     3.9460    -2.5540 H     1 <1>   0.1500 
 39 H        1.1270     2.5560    -1.9810 H     1 <1>   0.0800 
 40 H        1.5090     1.9160    -0.4110 H     1 <1>   0.0800 
 41 H        0.0880     2.9120    -0.6410 H     1 <1>   0.0800 
 42 H        0.6010     8.8340     1.7330 H     1 <1>   0.0800 
 43 H       -1.1390     8.5590     1.6450 H     1 <1>   0.0800 
 44 H       -0.1340     8.3450     0.2080 H     1 <1>   0.0800 
 45 H       -2.2930     2.3780    -2.4750 H     1 <1>   0.0800 
 46 H       -2.6420     3.9030    -3.2230 H     1 <1>   0.0800 
 47 H       -5.9540     1.8460    -1.5190 H     1 <1>   0.0800 
 48 H       -4.4140     1.0620    -1.3830 H     1 <1>   0.0800 
 49 H        4.2630     5.8770    -2.2010 H     1 <1>   0.1500 
 50 H        3.9860     8.1500     0.6420 H     1 <1>   0.0800 
 51 H        4.7420     7.8870    -0.9070 H     1 <1>   0.0800 
 52 H        5.3900     7.1130     0.5210 H     1 <1>   0.0800 
 53 H       -4.4910     2.2320    -3.5200 H     1 <1>   0.0800 
 54 H       -5.0060     3.7030    -2.7480 H     1 <1>   0.0800 
@<TRIPOS>BOND
  1   1   2  2   
  2   2   3  am  
  3   2   4  am  
  4   3   5  1   
  5   3  27  1   
  6   4   6  1   
  7   4  28  1   
  8   5   7  2   
  9   5   8  1   
 10   6   7  1   
 11   6   9  1   
 12   6  29  1   
 13   7  10  1   
 14   8  11  1   
 15   8  30  1   
 16   8  31  1   
 17   9  12  ar  
 18   9  13  ar  
 19  10  14  2   
 20  10  15  1   
 21  11  16  1   
 22  11  17  1   
 23  11  32  1   
 24  12  18  ar  
 25  12  19  1   
 26  13  20  ar  
 27  13  33  1   
 28  15  21  1   
 29  16  22  1   
 30  16  34  1   
 31  16  35  1   
 32  17  23  1   
 33  17  36  1   
 34  17  37  1   
 35  18  24  ar  
 36  18  38  1   
 37  19  39  1   
 38  19  40  1   
 39  19  41  1   
 40  20  24  ar  
 41  20  25  1   
 42  21  42  1   
 43  21  43  1   
 44  21  44  1   
 45  22  26  1   
 46  22  45  1   
 47  22  46  1   
 48  23  26  1   
 49  23  47  1   
 50  23  48  1   
 51  24  49  1   
 52  25  50  1   
 53  25  51  1   
 54  25  52  1   
 55  26  53  1   
 56  26  54  1   
@<TRIPOS>SUBSTRUCTURE
  1 ****   7 GROUP 4 **** **** 0

# MOE 2024.06 (io_trps.svl 2023.06)
