@<TRIPOS>MOLECULE
3-(3,4-Dimethoxy-phenyl)-6-ethyl-5-methyl-4H-pyrazolo[1,5-a]pyrimidin-7-one
42 44 1 0 0 
SMALL
USER_CHARGES


@<TRIPOS>ATOM
  1 O        0.0060     0.7320     1.8490 O.2   1 <1>  -0.5700 
  2 C        0.3080     1.7680     1.2650 C.2   1 <1>   0.5650 
  3 N       -0.5630     2.8910     1.2640 N.pl3 1 <1>   0.5610 
  4 C        1.5550     1.8970     0.5530 C.2   1 <1>  -0.1240 
  5 N       -1.8030     3.0590     1.8410 N.2   1 <1>  -0.7070 
  6 C       -0.2060     4.0430     0.6200 C.2   1 <1>  -0.0680 
  7 C        1.8670     3.0540    -0.1080 C.2   1 <1>  -0.0380 
  8 C        2.4930     0.6850     0.5750 C.3   1 <1>  -0.0220 
  9 C       -2.1530     4.2700     1.5470 C.2   1 <1>   0.1390 
 10 N        1.0040     4.1220    -0.0720 N.pl3 1 <1>  -0.5840 
 11 C       -1.2020     4.9550     0.7870 C.2   1 <1>  -0.0540 
 12 C        3.1200     3.3130    -0.9310 C.3   1 <1>  -0.1020 
 13 C        2.1680    -0.2760    -0.5710 C.3   1 <1>  -0.2400 
 14 C       -1.2790     6.3110     0.3100 C.ar  1 <1>   0.0540 
 15 C       -0.2340     7.2020     0.5320 C.ar  1 <1>  -0.1500 
 16 C       -2.3900     6.7630    -0.3900 C.ar  1 <1>  -0.1500 
 17 C       -0.2760     8.5140     0.0720 C.ar  1 <1>   0.0820 
 18 C       -2.4530     8.0620    -0.8530 C.ar  1 <1>  -0.1500 
 19 O        0.7700     9.3680     0.2770 O.3   1 <1>  -0.3630 
 20 C       -1.4140     8.9510    -0.6290 C.ar  1 <1>   0.0820 
 21 C        1.8670     9.0350     1.0990 C.3   1 <1>   0.0400 
 22 O       -1.6160    10.2010    -1.1370 O.3   1 <1>  -0.3630 
 23 C       -1.0400    11.3430    -0.5420 C.3   1 <1>   0.0400 
 24 H        2.4030     0.1620     1.5130 H     1 <1>   0.0800 
 25 H        3.5200     0.9950     0.5080 H     1 <1>   0.0800 
 26 H       -3.0870     4.7060     1.8630 H     1 <1>   0.1500 
 27 H        1.2070     4.9790    -0.6060 H     1 <1>   0.4000 
 28 H        3.7680     3.9900    -0.4040 H     1 <1>   0.0800 
 29 H        2.8520     3.7560    -1.8740 H     1 <1>   0.0800 
 30 H        3.6640     2.4130    -1.1460 H     1 <1>   0.0800 
 31 H        1.1610    -0.6410    -0.4720 H     1 <1>   0.0800 
 32 H        2.8390    -1.1160    -0.5500 H     1 <1>   0.0800 
 33 H        2.2640     0.2220    -1.5200 H     1 <1>   0.0800 
 34 H        0.6120     6.8320     1.0780 H     1 <1>   0.1500 
 35 H       -3.2080     6.0900    -0.5790 H     1 <1>   0.1500 
 36 H       -3.3160     8.4020    -1.3970 H     1 <1>   0.1500 
 37 H        2.5140     9.8920     1.1560 H     1 <1>   0.0800 
 38 H        2.3970     8.2090     0.6590 H     1 <1>   0.0800 
 39 H        1.5060     8.7850     2.0810 H     1 <1>   0.0800 
 40 H       -1.5810    12.2060    -0.8820 H     1 <1>   0.0800 
 41 H       -0.0130    11.4140    -0.8510 H     1 <1>   0.0800 
 42 H       -1.1140    11.2570     0.5280 H     1 <1>   0.0800 
@<TRIPOS>BOND
  1   1   2  2   
  2   2   3  1   
  3   2   4  1   
  4   3   5  1   
  5   3   6  1   
  6   4   7  2   
  7   4   8  1   
  8   5   9  2   
  9   6  10  1   
 10   6  11  2   
 11   7  10  1   
 12   7  12  1   
 13   8  13  1   
 14   8  24  1   
 15   8  25  1   
 16   9  11  1   
 17   9  26  1   
 18  10  27  1   
 19  11  14  1   
 20  12  28  1   
 21  12  29  1   
 22  12  30  1   
 23  13  31  1   
 24  13  32  1   
 25  13  33  1   
 26  14  15  ar  
 27  14  16  ar  
 28  15  17  ar  
 29  15  34  1   
 30  16  18  ar  
 31  16  35  1   
 32  17  19  1   
 33  17  20  ar  
 34  18  20  ar  
 35  18  36  1   
 36  19  21  1   
 37  20  22  1   
 38  21  37  1   
 39  21  38  1   
 40  21  39  1   
 41  22  23  1   
 42  23  40  1   
 43  23  41  1   
 44  23  42  1   
@<TRIPOS>SUBSTRUCTURE
  1 ****   6 GROUP 4 **** **** 0

# MOE 2024.06 (io_trps.svl 2023.06)
