@<TRIPOS>MOLECULE
1-(4-Fluoro-benzenesulfonyl)-piperidine-3-carboxylic acid isopropylamide
43 44 1 0 0 
SMALL
USER_CHARGES


@<TRIPOS>ATOM
  1 S       -0.0440    -0.2730     0.9920 S.o2  1 <1>   1.4470 
  2 O       -0.4540    -0.4250     2.3720 O.2   1 <1>  -0.6500 
  3 O        1.0210    -1.1030     0.4730 O.2   1 <1>  -0.6500 
  4 N       -1.4130    -0.5700     0.0380 N.am  1 <1>  -0.8490 
  5 C        0.3400     1.4670     0.6350 C.ar  1 <1>  -0.0090 
  6 C       -2.5920     0.1670     0.5220 C.3   1 <1>   0.1960 
  7 C       -1.7000    -2.0070    -0.0280 C.3   1 <1>   0.1960 
  8 C        0.1830     2.4550     1.6060 C.ar  1 <1>  -0.1500 
  9 C        0.7830     1.8480    -0.6300 C.ar  1 <1>  -0.1500 
 10 C       -3.7640     0.0050    -0.4560 C.3   1 <1>  -0.0190 
 11 C       -2.8510    -2.2770    -1.0040 C.3   1 <1>  -0.1600 
 12 C        0.4590     3.7840     1.3300 C.ar  1 <1>  -0.1500 
 13 C        1.0650     3.1710    -0.9260 C.ar  1 <1>  -0.1500 
 14 C       -4.9710     0.8060     0.0100 C.2   1 <1>   0.5690 
 15 C       -4.1110    -1.4840    -0.6300 C.3   1 <1>  -0.1600 
 16 C        0.8960     4.1180     0.0640 C.ar  1 <1>   0.1900 
 17 O       -5.1400     0.9790     1.1930 O.2   1 <1>  -0.5700 
 18 N       -5.8160     1.2930    -0.9400 N.am  1 <1>  -0.7300 
 19 F        1.1580     5.3680    -0.2050 F     1 <1>  -0.1900 
 20 C       -7.0460     2.0850    -0.7500 C.3   1 <1>   0.2200 
 21 C       -6.7170     3.4150    -0.0740 C.3   1 <1>  -0.2400 
 22 C       -8.0750     1.2780     0.0380 C.3   1 <1>  -0.2400 
 23 H       -2.3610     1.2150     0.6100 H     1 <1>   0.0800 
 24 H       -2.8770    -0.1930     1.4980 H     1 <1>   0.0800 
 25 H       -1.9510    -2.3750     0.9540 H     1 <1>   0.0800 
 26 H       -0.8260    -2.5380    -0.3710 H     1 <1>   0.0800 
 27 H       -0.1600     2.1800     2.5910 H     1 <1>   0.1500 
 28 H        0.9080     1.0930    -1.3900 H     1 <1>   0.1500 
 29 H       -3.4490     0.4050    -1.4030 H     1 <1>   0.0800 
 30 H       -3.0740    -3.3300    -1.0060 H     1 <1>   0.0800 
 31 H       -2.5310    -2.0090    -1.9960 H     1 <1>   0.0800 
 32 H        0.3380     4.5480     2.0780 H     1 <1>   0.1500 
 33 H        1.4080     3.4660    -1.9020 H     1 <1>   0.1500 
 34 H       -4.8620    -1.6050    -1.3910 H     1 <1>   0.0800 
 35 H       -4.5110    -1.8640     0.2960 H     1 <1>   0.0800 
 36 H       -5.6110     1.0860    -1.9170 H     1 <1>   0.3700 
 37 H       -7.4580     2.2970    -1.7230 H     1 <1>   0.0800 
 38 H       -6.3520     3.2560     0.9250 H     1 <1>   0.0800 
 39 H       -7.6010     4.0220    -0.0160 H     1 <1>   0.0800 
 40 H       -5.9750     3.9470    -0.6420 H     1 <1>   0.0800 
 41 H       -7.7270     1.0850     1.0370 H     1 <1>   0.0800 
 42 H       -8.2720     0.3440    -0.4550 H     1 <1>   0.0800 
 43 H       -8.9960     1.8280     0.1040 H     1 <1>   0.0800 
@<TRIPOS>BOND
  1   1   2  2   
  2   1   3  2   
  3   1   4  am  
  4   1   5  1   
  5   4   6  1   
  6   4   7  1   
  7   5   8  ar  
  8   5   9  ar  
  9   6  10  1   
 10   6  23  1   
 11   6  24  1   
 12   7  11  1   
 13   7  25  1   
 14   7  26  1   
 15   8  12  ar  
 16   8  27  1   
 17   9  13  ar  
 18   9  28  1   
 19  10  14  1   
 20  10  15  1   
 21  10  29  1   
 22  11  15  1   
 23  11  30  1   
 24  11  31  1   
 25  12  16  ar  
 26  12  32  1   
 27  13  16  ar  
 28  13  33  1   
 29  14  17  2   
 30  14  18  am  
 31  15  34  1   
 32  15  35  1   
 33  16  19  1   
 34  18  20  1   
 35  18  36  1   
 36  20  21  1   
 37  20  22  1   
 38  20  37  1   
 39  21  38  1   
 40  21  39  1   
 41  21  40  1   
 42  22  41  1   
 43  22  42  1   
 44  22  43  1   
@<TRIPOS>SUBSTRUCTURE
  1 ****   6 GROUP 4 **** **** 0

# MOE 2024.06 (io_trps.svl 2023.06)
