@<TRIPOS>MOLECULE
1-(3,5-Dimethyl-phenyl)-5-oxo-pyrrolidine-3-carboxylic acid (2,4-dimethoxy-pheny
51 53 1 0 0 
SMALL
USER_CHARGES


@<TRIPOS>ATOM
  1 O        0.6280    -0.0490     1.3090 O.2   1 <1>  -0.5700 
  2 C        1.6700    -0.3060     0.7590 C.2   1 <1>   0.5690 
  3 N        2.0720    -1.5110     0.2580 N.am  1 <1>  -0.4770 
  4 C        2.7150     0.7530     0.5370 C.3   1 <1>  -0.0990 
  5 C        1.3650    -2.7320     0.2240 C.ar  1 <1>   0.1170 
  6 C        3.4170    -1.3960    -0.3420 C.3   1 <1>   0.1400 
  7 C        3.6380     0.1140    -0.5130 C.3   1 <1>  -0.0190 
  8 C       -0.0160    -2.7580     0.0610 C.ar  1 <1>  -0.1500 
  9 C        2.0340    -3.9470     0.3400 C.ar  1 <1>  -0.1500 
 10 C        5.0960     0.5390    -0.4100 C.2   1 <1>   0.5690 
 11 C       -0.7120    -3.9530     0.0090 C.ar  1 <1>  -0.1440 
 12 C        1.3530    -5.1510     0.2850 C.ar  1 <1>  -0.1440 
 13 O        5.9530    -0.3090    -0.4470 O.2   1 <1>  -0.5700 
 14 N        5.3550     1.8750    -0.2980 N.am  1 <1>  -0.5470 
 15 C       -0.0210    -5.1480     0.1190 C.ar  1 <1>  -0.1500 
 16 C       -2.2200    -3.9590    -0.1670 C.3   1 <1>  -0.0970 
 17 C        2.0940    -6.4700     0.4120 C.3   1 <1>  -0.0970 
 18 C        6.5390     2.6290    -0.1810 C.ar  1 <1>   0.1170 
 19 C        6.4140     4.0120    -0.0110 C.ar  1 <1>   0.0830 
 20 C        7.8130     2.0720    -0.2280 C.ar  1 <1>  -0.1500 
 21 O        5.1450     4.5220     0.0290 O.3   1 <1>  -0.3630 
 22 C        7.5500     4.8050     0.1090 C.ar  1 <1>  -0.1500 
 23 C        8.9410     2.8640    -0.1080 C.ar  1 <1>  -0.1500 
 24 C        4.9230     5.9030     0.2190 C.3   1 <1>   0.0400 
 25 C        8.8120     4.2380     0.0610 C.ar  1 <1>   0.0830 
 26 O        9.8660     5.0880     0.1870 O.3   1 <1>  -0.3620 
 27 C       11.1920     4.6080     0.1530 C.3   1 <1>   0.0400 
 28 H        3.2280     0.9230     1.4660 H     1 <1>   0.0800 
 29 H        2.2670     1.6650     0.1860 H     1 <1>   0.0800 
 30 H        3.4650    -1.9100    -1.2870 H     1 <1>   0.0800 
 31 H        4.1370    -1.8190     0.3390 H     1 <1>   0.0800 
 32 H        3.2850     0.3810    -1.4930 H     1 <1>   0.0800 
 33 H       -0.5500    -1.8300    -0.0280 H     1 <1>   0.1500 
 34 H        3.0980    -3.9530     0.4820 H     1 <1>   0.1500 
 35 H        4.5390     2.4890    -0.2730 H     1 <1>   0.3700 
 36 H       -0.5570    -6.0800     0.0770 H     1 <1>   0.1500 
 37 H       -2.6370    -3.0070     0.1060 H     1 <1>   0.0800 
 38 H       -2.6630    -4.7140     0.4570 H     1 <1>   0.0800 
 39 H       -2.4660    -4.1650    -1.1930 H     1 <1>   0.0800 
 40 H        3.1530    -6.3280     0.3010 H     1 <1>   0.0800 
 41 H        1.7610    -7.1550    -0.3470 H     1 <1>   0.0800 
 42 H        1.9020    -6.9020     1.3780 H     1 <1>   0.0800 
 43 H        7.9380     1.0140    -0.3600 H     1 <1>   0.1500 
 44 H        7.4920     5.8680     0.2390 H     1 <1>   0.1500 
 45 H        9.9040     2.3920    -0.1500 H     1 <1>   0.1500 
 46 H        3.8620     6.0760     0.2270 H     1 <1>   0.0800 
 47 H        5.3750     6.4450    -0.5930 H     1 <1>   0.0800 
 48 H        5.3480     6.1990     1.1630 H     1 <1>   0.0800 
 49 H       11.8530     5.4470     0.2710 H     1 <1>   0.0800 
 50 H       11.3680     4.1350    -0.7960 H     1 <1>   0.0800 
 51 H       11.3330     3.9150     0.9630 H     1 <1>   0.0800 
@<TRIPOS>BOND
  1   1   2  2   
  2   2   3  am  
  3   2   4  1   
  4   3   5  1   
  5   3   6  1   
  6   4   7  1   
  7   4  28  1   
  8   4  29  1   
  9   5   8  ar  
 10   5   9  ar  
 11   6   7  1   
 12   6  30  1   
 13   6  31  1   
 14   7  10  1   
 15   7  32  1   
 16   8  11  ar  
 17   8  33  1   
 18   9  12  ar  
 19   9  34  1   
 20  10  13  2   
 21  10  14  am  
 22  11  15  ar  
 23  11  16  1   
 24  12  15  ar  
 25  12  17  1   
 26  14  18  1   
 27  14  35  1   
 28  15  36  1   
 29  16  37  1   
 30  16  38  1   
 31  16  39  1   
 32  17  40  1   
 33  17  41  1   
 34  17  42  1   
 35  18  19  ar  
 36  18  20  ar  
 37  19  21  1   
 38  19  22  ar  
 39  20  23  ar  
 40  20  43  1   
 41  21  24  1   
 42  22  25  ar  
 43  22  44  1   
 44  23  25  ar  
 45  23  45  1   
 46  24  46  1   
 47  24  47  1   
 48  24  48  1   
 49  25  26  1   
 50  26  27  1   
 51  27  49  1   
 52  27  50  1   
 53  27  51  1   
@<TRIPOS>SUBSTRUCTURE
  1 ****   7 GROUP 4 **** **** 0

# MOE 2024.06 (io_trps.svl 2023.06)
