@<TRIPOS>MOLECULE
1-(2,5-Dimethoxy-benzenesulfonyl)-piperidine-4-carboxylic acid benzo[1,3]dioxol-
55 58 1 0 0 
SMALL
USER_CHARGES


@<TRIPOS>ATOM
  1 S       -0.0560    -0.4100     1.6020 S.o2  1 <1>   1.4470 
  2 O        0.0990    -1.7150     2.2110 O.2   1 <1>  -0.6500 
  3 O       -0.3870     0.6960     2.4760 O.2   1 <1>  -0.6500 
  4 N        1.4430    -0.0370     0.8960 N.am  1 <1>  -0.8490 
  5 C       -1.1990    -0.5860     0.2040 C.ar  1 <1>  -0.0090 
  6 C        2.5250    -0.2050     1.8720 C.3   1 <1>   0.1960 
  7 C        1.4510     1.3030     0.3000 C.3   1 <1>   0.1960 
  8 C       -1.9110     0.4900    -0.3240 C.ar  1 <1>   0.0820 
  9 C       -1.3750    -1.8300    -0.3920 C.ar  1 <1>  -0.1500 
 10 C        3.8890     0.0240     1.2160 C.3   1 <1>  -0.1600 
 11 C        2.7830     1.5760    -0.4030 C.3   1 <1>  -0.1600 
 12 O       -1.7580     1.7320     0.1820 O.3   1 <1>  -0.3620 
 13 C       -2.7700     0.3260    -1.4010 C.ar  1 <1>  -0.1500 
 14 C       -2.2390    -2.0070    -1.4680 C.ar  1 <1>   0.0820 
 15 C        3.9670     1.4130     0.5630 C.3   1 <1>  -0.0190 
 16 C       -2.7970     2.2030     1.0110 C.3   1 <1>   0.0400 
 17 C       -2.9360    -0.9210    -1.9680 C.ar  1 <1>  -0.1500 
 18 O       -2.4510    -3.2010    -2.0790 O.3   1 <1>  -0.3630 
 19 C        5.3080     1.6350    -0.1390 C.2   1 <1>   0.5690 
 20 C       -1.7870    -4.3700    -1.6490 C.3   1 <1>   0.0400 
 21 O        5.6230     0.9000    -1.0420 O.2   1 <1>  -0.5700 
 22 N        6.0940     2.6640     0.3060 N.am  1 <1>  -0.5470 
 23 C        7.3500     3.1240    -0.1270 C.ar  1 <1>   0.1170 
 24 C        8.1150     3.8770     0.7630 C.ar  1 <1>  -0.1500 
 25 C        7.8520     2.8740    -1.4110 C.ar  1 <1>  -0.1500 
 26 C        9.3440     4.3460     0.3480 C.ar  1 <1>   0.0820 
 27 C        9.0920     3.3530    -1.8110 C.ar  1 <1>  -0.1500 
 28 O       10.2260     5.0780     1.0380 O.3   1 <1>  -0.3620 
 29 C        9.8220     4.0920    -0.9030 C.ar  1 <1>   0.0820 
 30 C       11.3380     5.3000     0.1720 C.3   1 <1>   0.4000 
 31 O       11.0280     4.6510    -1.0610 O.3   1 <1>  -0.3620 
 32 H        2.5040    -1.2070     2.2690 H     1 <1>   0.0800 
 33 H        2.3860     0.4810     2.6910 H     1 <1>   0.0800 
 34 H        1.2740     2.0470     1.0600 H     1 <1>   0.0800 
 35 H        0.6670     1.3790    -0.4330 H     1 <1>   0.0800 
 36 H       -0.8210    -2.6610     0.0050 H     1 <1>   0.1500 
 37 H        4.0480    -0.7390     0.4730 H     1 <1>   0.0800 
 38 H        4.6620    -0.0760     1.9560 H     1 <1>   0.0800 
 39 H        2.7760     2.5730    -0.8060 H     1 <1>   0.0800 
 40 H        2.8860     0.8900    -1.2270 H     1 <1>   0.0800 
 41 H       -3.3000     1.1750    -1.7950 H     1 <1>   0.1500 
 42 H        3.8630     2.1490     1.3390 H     1 <1>   0.0800 
 43 H       -2.5210     3.1750     1.3770 H     1 <1>   0.0800 
 44 H       -2.9180     1.5240     1.8380 H     1 <1>   0.0800 
 45 H       -3.7060     2.2660     0.4400 H     1 <1>   0.0800 
 46 H       -3.6000    -1.0620    -2.8020 H     1 <1>   0.1500 
 47 H       -2.1090    -5.1850    -2.2720 H     1 <1>   0.0800 
 48 H       -2.0520    -4.5670    -0.6250 H     1 <1>   0.0800 
 49 H       -0.7260    -4.2280    -1.7530 H     1 <1>   0.0800 
 50 H        5.7320     3.1600     1.1170 H     1 <1>   0.3700 
 51 H        7.7730     4.0950     1.7560 H     1 <1>   0.1500 
 52 H        7.2720     2.3020    -2.1120 H     1 <1>   0.1500 
 53 H        9.4810     3.1600    -2.7950 H     1 <1>   0.1500 
 54 H       12.2210     4.8590     0.5990 H     1 <1>   0.0800 
 55 H       11.4590     6.3550     0.0030 H     1 <1>   0.0800 
@<TRIPOS>BOND
  1   1   2  2   
  2   1   3  2   
  3   1   4  am  
  4   1   5  1   
  5   4   6  1   
  6   4   7  1   
  7   5   8  ar  
  8   5   9  ar  
  9   6  10  1   
 10   6  32  1   
 11   6  33  1   
 12   7  11  1   
 13   7  34  1   
 14   7  35  1   
 15   8  12  1   
 16   8  13  ar  
 17   9  14  ar  
 18   9  36  1   
 19  10  15  1   
 20  10  37  1   
 21  10  38  1   
 22  11  15  1   
 23  11  39  1   
 24  11  40  1   
 25  12  16  1   
 26  13  17  ar  
 27  13  41  1   
 28  14  17  ar  
 29  14  18  1   
 30  15  19  1   
 31  15  42  1   
 32  16  43  1   
 33  16  44  1   
 34  16  45  1   
 35  17  46  1   
 36  18  20  1   
 37  19  21  2   
 38  19  22  am  
 39  20  47  1   
 40  20  48  1   
 41  20  49  1   
 42  22  23  1   
 43  22  50  1   
 44  23  24  ar  
 45  23  25  ar  
 46  24  26  ar  
 47  24  51  1   
 48  25  27  ar  
 49  25  52  1   
 50  26  28  1   
 51  26  29  ar  
 52  27  29  ar  
 53  27  53  1   
 54  28  30  1   
 55  29  31  1   
 56  30  31  1   
 57  30  54  1   
 58  30  55  1   
@<TRIPOS>SUBSTRUCTURE
  1 ****  11 GROUP 4 **** **** 0

# MOE 2024.06 (io_trps.svl 2023.06)
