@<TRIPOS>MOLECULE
3-Methyl-N-(5-propyl-[1,3,4]thiadiazol-2-yl)-benzamide
33 34 1 0 0 
SMALL
USER_CHARGES


@<TRIPOS>ATOM
  1 S       -0.0340    -0.6530    -0.3420 S.3   1 <1>  -0.0800 
  2 C        1.2440     0.2340     0.4320 C.2   1 <1>   0.4420 
  3 C       -1.1110     0.6040     0.1590 C.2   1 <1>   0.1980 
  4 N        0.8230     1.3210     0.9650 N.2   1 <1>  -0.3380 
  5 N        2.5520    -0.2000     0.4400 N.am  1 <1>  -0.4940 
  6 N       -0.5200     1.5260     0.8080 N.2   1 <1>  -0.3380 
  7 C       -2.5740     0.4540    -0.2240 C.3   1 <1>   0.0200 
  8 C        3.1540    -1.3490    -0.0120 C.2   1 <1>   0.5440 
  9 C       -3.4420     1.6230     0.2690 C.3   1 <1>  -0.1600 
 10 O        2.4800    -2.2760    -0.4070 O.2   1 <1>  -0.5700 
 11 C        4.6010    -1.4490     0.0200 C.ar  1 <1>   0.0860 
 12 C       -4.9110     1.4460    -0.1320 C.3   1 <1>  -0.2400 
 13 C        5.4250    -0.3360    -0.1690 C.ar  1 <1>  -0.1500 
 14 C        5.2250    -2.6760     0.2460 C.ar  1 <1>  -0.1500 
 15 C        6.8060    -0.4350    -0.1170 C.ar  1 <1>  -0.1440 
 16 C        6.6020    -2.7860     0.3000 C.ar  1 <1>  -0.1500 
 17 C        7.3920    -1.6660     0.1220 C.ar  1 <1>  -0.1500 
 18 C        7.6800     0.7900    -0.3210 C.3   1 <1>  -0.0970 
 19 H        3.1720     0.4520     0.9110 H     1 <1>   0.3700 
 20 H       -2.9430    -0.4650     0.1930 H     1 <1>   0.0800 
 21 H       -2.6410     0.3870    -1.2950 H     1 <1>   0.0800 
 22 H       -3.0680     2.5440    -0.1460 H     1 <1>   0.0800 
 23 H       -3.3710     1.6920     1.3410 H     1 <1>   0.0800 
 24 H       -5.0080     1.4000    -1.2030 H     1 <1>   0.0800 
 25 H       -5.4910     2.2780     0.2270 H     1 <1>   0.0800 
 26 H       -5.3130     0.5430     0.2930 H     1 <1>   0.0800 
 27 H        4.9820     0.6220    -0.3700 H     1 <1>   0.1500 
 28 H        4.6160    -3.5540     0.3810 H     1 <1>   0.1500 
 29 H        7.0600    -3.7440     0.4790 H     1 <1>   0.1500 
 30 H        8.4640    -1.7570     0.1680 H     1 <1>   0.1500 
 31 H        7.1380     1.5690    -0.8270 H     1 <1>   0.0800 
 32 H        8.5400     0.5380    -0.9150 H     1 <1>   0.0800 
 33 H        8.0140     1.1620     0.6310 H     1 <1>   0.0800 
@<TRIPOS>BOND
  1   1   2  1   
  2   1   3  1   
  3   2   4  2   
  4   2   5  1   
  5   3   6  2   
  6   3   7  1   
  7   4   6  1   
  8   5   8  am  
  9   5  19  1   
 10   7   9  1   
 11   7  20  1   
 12   7  21  1   
 13   8  10  2   
 14   8  11  1   
 15   9  12  1   
 16   9  22  1   
 17   9  23  1   
 18  11  13  ar  
 19  11  14  ar  
 20  12  24  1   
 21  12  25  1   
 22  12  26  1   
 23  13  15  ar  
 24  13  27  1   
 25  14  16  ar  
 26  14  28  1   
 27  15  17  ar  
 28  15  18  1   
 29  16  17  ar  
 30  16  29  1   
 31  17  30  1   
 32  18  31  1   
 33  18  32  1   
 34  18  33  1   
@<TRIPOS>SUBSTRUCTURE
  1 ****   5 GROUP 4 **** **** 0

# MOE 2024.06 (io_trps.svl 2023.06)
