@<TRIPOS>MOLECULE
5-tert-Butyl-4,5,6,7-tetrahydro-1H-indazole-3-carboxylic acid
33 34 1 0 0 
SMALL
USER_CHARGES


@<TRIPOS>ATOM
  1 O       -0.0460    -0.2520    -0.8240 O.co2 1 <1>  -0.9000 
  2 C        0.7800    -1.1820    -0.6680 C.2   1 <1>   1.0330 
  3 O        1.9720    -0.8430    -0.4990 O.co2 1 <1>  -0.9000 
  4 C        0.3420    -2.5970    -0.6690 C.2   1 <1>   0.0560 
  5 N        1.0930    -3.6890    -0.8140 N.2   1 <1>  -0.7070 
  6 C       -1.0010    -2.9970    -0.5130 C.2   1 <1>  -0.1810 
  7 N        0.2530    -4.7290    -0.7560 N.pl3 1 <1>   0.3000 
  8 C       -1.0190    -4.3360    -0.5800 C.2   1 <1>  -0.3320 
  9 C       -2.2450    -2.1520    -0.3070 C.3   1 <1>   0.0210 
 10 C       -2.2520    -5.2030    -0.4710 C.3   1 <1>   0.0200 
 11 C       -3.4500    -3.0150     0.1630 C.3   1 <1>  -0.0800 
 12 C       -3.5090    -4.3340    -0.6590 C.3   1 <1>  -0.1600 
 13 C       -4.8030    -2.2280     0.2080 C.3   1 <1>   0.0000 
 14 C       -5.3350    -1.8870    -1.1960 C.3   1 <1>  -0.2400 
 15 C       -5.8820    -3.0500     0.9390 C.3   1 <1>  -0.2400 
 16 C       -4.6420    -0.9100     0.9890 C.3   1 <1>  -0.2400 
 17 H        0.5830    -5.6950    -0.8410 H     1 <1>   0.2700 
 18 H       -2.4590    -1.6540    -1.2330 H     1 <1>   0.0800 
 19 H       -2.0190    -1.4010     0.4290 H     1 <1>   0.0800 
 20 H       -2.2700    -5.6650     0.5010 H     1 <1>   0.0800 
 21 H       -2.2330    -5.9750    -1.2200 H     1 <1>   0.0800 
 22 H       -3.2230    -3.2980     1.1760 H     1 <1>   0.0800 
 23 H       -4.3620    -4.9240    -0.3890 H     1 <1>   0.0800 
 24 H       -3.5910    -4.0880    -1.7030 H     1 <1>   0.0800 
 25 H       -5.5350    -2.7780    -1.7620 H     1 <1>   0.0800 
 26 H       -4.6280    -1.2890    -1.7410 H     1 <1>   0.0800 
 27 H       -6.2510    -1.3290    -1.1230 H     1 <1>   0.0800 
 28 H       -5.5320    -3.3500     1.9110 H     1 <1>   0.0800 
 29 H       -6.1510    -3.9300     0.3850 H     1 <1>   0.0800 
 30 H       -6.7760    -2.4680     1.0700 H     1 <1>   0.0800 
 31 H       -4.2190    -1.0970     1.9600 H     1 <1>   0.0800 
 32 H       -5.5920    -0.4240     1.1210 H     1 <1>   0.0800 
 33 H       -4.0000    -0.2240     0.4650 H     1 <1>   0.0800 
@<TRIPOS>BOND
  1   1   2  ar  
  2   2   3  ar  
  3   2   4  1   
  4   4   5  2   
  5   4   6  1   
  6   5   7  1   
  7   6   8  2   
  8   6   9  1   
  9   7   8  1   
 10   7  17  1   
 11   8  10  1   
 12   9  11  1   
 13   9  18  1   
 14   9  19  1   
 15  10  12  1   
 16  10  20  1   
 17  10  21  1   
 18  11  12  1   
 19  11  13  1   
 20  11  22  1   
 21  12  23  1   
 22  12  24  1   
 23  13  14  1   
 24  13  15  1   
 25  13  16  1   
 26  14  25  1   
 27  14  26  1   
 28  14  27  1   
 29  15  28  1   
 30  15  29  1   
 31  15  30  1   
 32  16  31  1   
 33  16  32  1   
 34  16  33  1   
@<TRIPOS>SUBSTRUCTURE
  1 ****   9 GROUP 4 **** **** 0

# MOE 2024.06 (io_trps.svl 2023.06)
