@<TRIPOS>MOLECULE
4-[3-(2-Chloro-phenyl)-[1,2,4]oxadiazol-5-yl]-N-methyl-butyramide
33 34 1 0 0 
SMALL
USER_CHARGES


@<TRIPOS>ATOM
  1 CL      -0.1810     0.0030    -0.9450 Cl    1 <1>  -0.1770 
  2 C        0.1870    -1.5630    -0.2580 C.ar  1 <1>   0.1770 
  3 C        1.5060    -2.0050    -0.1600 C.ar  1 <1>   0.0540 
  4 C       -0.8790    -2.3390     0.1580 C.ar  1 <1>  -0.1500 
  5 C        2.6290    -1.1990    -0.5780 C.2   1 <1>   0.4620 
  6 C        1.7100    -3.2820     0.3630 C.ar  1 <1>  -0.1500 
  7 C       -0.6480    -3.5990     0.6820 C.ar  1 <1>  -0.1500 
  8 N        3.5210    -1.5560    -1.4310 N.2   1 <1>  -0.4100 
  9 N        2.8730     0.0130    -0.0760 N.2   1 <1>  -0.5650 
 10 C        0.6510    -4.0690     0.7810 C.ar  1 <1>  -0.1500 
 11 O        4.3700    -0.5830    -1.5410 O.3   1 <1>  -0.0190 
 12 C        3.9310     0.3200    -0.7020 C.2   1 <1>   0.2980 
 13 C        4.7000     1.6210    -0.5550 C.3   1 <1>   0.0200 
 14 C        5.8680     1.5240     0.4420 C.3   1 <1>  -0.1600 
 15 C        6.9280     0.4730     0.0490 C.3   1 <1>  -0.0990 
 16 C        8.1410     0.4380     0.9680 C.2   1 <1>   0.5690 
 17 O        8.2980     1.2970     1.7990 O.2   1 <1>  -0.5700 
 18 N        9.0580    -0.5520     0.8590 N.am  1 <1>  -0.7300 
 19 C        9.1110    -1.6950    -0.0880 C.3   1 <1>   0.0600 
 20 H       -1.8810    -1.9600     0.0680 H     1 <1>   0.1500 
 21 H        2.7160    -3.6580     0.4440 H     1 <1>   0.1500 
 22 H       -1.4720    -4.2100     1.0080 H     1 <1>   0.1500 
 23 H        0.8350    -5.0510     1.1840 H     1 <1>   0.1500 
 24 H        4.0170     2.3780    -0.2120 H     1 <1>   0.0800 
 25 H        5.0630     1.9250    -1.5200 H     1 <1>   0.0800 
 26 H        5.4810     1.2830     1.4180 H     1 <1>   0.0800 
 27 H        6.3390     2.4900     0.5110 H     1 <1>   0.0800 
 28 H        7.2750     0.6710    -0.9490 H     1 <1>   0.0800 
 29 H        6.4790    -0.5030     0.0670 H     1 <1>   0.0800 
 30 H        9.8260    -0.4900     1.5330 H     1 <1>   0.3700 
 31 H        8.3350    -1.6210    -0.8290 H     1 <1>   0.0800 
 32 H        8.9910    -2.6170     0.4530 H     1 <1>   0.0800 
 33 H       10.0650    -1.7040    -0.5880 H     1 <1>   0.0800 
@<TRIPOS>BOND
  1   1   2  1   
  2   2   3  ar  
  3   2   4  ar  
  4   3   5  1   
  5   3   6  ar  
  6   4   7  ar  
  7   4  20  1   
  8   5   8  2   
  9   5   9  1   
 10   6  10  ar  
 11   6  21  1   
 12   7  10  ar  
 13   7  22  1   
 14   8  11  1   
 15   9  12  2   
 16  10  23  1   
 17  11  12  1   
 18  12  13  1   
 19  13  14  1   
 20  13  24  1   
 21  13  25  1   
 22  14  15  1   
 23  14  26  1   
 24  14  27  1   
 25  15  16  1   
 26  15  28  1   
 27  15  29  1   
 28  16  17  2   
 29  16  18  am  
 30  18  19  1   
 31  18  30  1   
 32  19  31  1   
 33  19  32  1   
 34  19  33  1   
@<TRIPOS>SUBSTRUCTURE
  1 ****   9 GROUP 4 **** **** 0

# MOE 2024.06 (io_trps.svl 2023.06)
