@<TRIPOS>MOLECULE
3-(3,4-Dimethoxy-phenyl)-2,7-dimethyl-pyrazolo[1,5-a]pyrimidine-6-carboxylic aci
47 49 1 0 0 
SMALL
USER_CHARGES


@<TRIPOS>ATOM
  1 O       -1.0010     0.0260     0.1030 O.2   1 <1>  -0.5700 
  2 C       -2.1820    -0.0840    -0.1500 C.2   1 <1>   0.7060 
  3 O       -2.6280    -1.2330    -0.6590 O.3   1 <1>  -0.4300 
  4 C       -3.1220     0.9890     0.0410 C.2   1 <1>   0.0290 
  5 C       -1.7690    -2.3260    -0.8970 C.3   1 <1>   0.1200 
  6 C       -4.4280     0.8760     0.4630 C.2   1 <1>  -0.1690 
  7 C       -2.6200     2.2940    -0.2560 C.2   1 <1>   0.3760 
  8 C       -2.6090    -3.4730    -1.4490 C.3   1 <1>  -0.2400 
  9 N       -5.1820     2.0340     0.5260 N.pl3 1 <1>   0.6010 
 10 C       -5.1250    -0.4200     0.8860 C.3   1 <1>  -0.1020 
 11 N       -3.3110     3.3820    -0.1870 N.2   1 <1>  -0.5760 
 12 N       -6.4760     2.1740     0.8870 N.2   1 <1>  -0.7070 
 13 C       -4.6230     3.2460     0.2010 C.2   1 <1>  -0.0260 
 14 C       -6.7100     3.4450     0.7840 C.2   1 <1>   0.1080 
 15 C       -5.6070     4.1840     0.3480 C.2   1 <1>  -0.0540 
 16 C       -8.0680     4.0150     1.1360 C.3   1 <1>  -0.0590 
 17 C       -5.5150     5.6040     0.1100 C.ar  1 <1>   0.0540 
 18 C       -4.4640     6.3450     0.6410 C.ar  1 <1>  -0.1500 
 19 C       -6.4610     6.2750    -0.6590 C.ar  1 <1>  -0.1500 
 20 C       -4.3580     7.7140     0.4310 C.ar  1 <1>   0.0820 
 21 C       -6.3760     7.6380    -0.8760 C.ar  1 <1>  -0.1500 
 22 O       -3.3290     8.4520     0.9410 O.3   1 <1>  -0.3630 
 23 C       -5.3270     8.3730    -0.3310 C.ar  1 <1>   0.0820 
 24 C       -2.1930     7.8330     1.5020 C.3   1 <1>   0.0400 
 25 O       -5.2000     9.7190    -0.5140 O.3   1 <1>  -0.3630 
 26 C       -6.0960    10.4450    -1.3250 C.3   1 <1>   0.0400 
 27 H       -1.0160    -2.0210    -1.6050 H     1 <1>   0.0800 
 28 H       -1.3000    -2.6030     0.0320 H     1 <1>   0.0800 
 29 H       -1.5920     2.3720    -0.5630 H     1 <1>   0.0600 
 30 H       -1.9790    -4.3220    -1.6430 H     1 <1>   0.0800 
 31 H       -3.0790    -3.1790    -2.3710 H     1 <1>   0.0800 
 32 H       -3.3610    -3.7600    -0.7370 H     1 <1>   0.0800 
 33 H       -4.4350    -1.2280     1.0400 H     1 <1>   0.0800 
 34 H       -5.6530    -0.2690     1.8120 H     1 <1>   0.0800 
 35 H       -5.8400    -0.7120     0.1370 H     1 <1>   0.0800 
 36 H       -8.5180     3.4230     1.9120 H     1 <1>   0.0800 
 37 H       -8.7040     3.9940     0.2710 H     1 <1>   0.0800 
 38 H       -7.9730     5.0260     1.4870 H     1 <1>   0.0800 
 39 H       -3.7360     5.8140     1.2230 H     1 <1>   0.1500 
 40 H       -7.2680     5.7170    -1.0970 H     1 <1>   0.1500 
 41 H       -7.1340     8.1070    -1.4730 H     1 <1>   0.1500 
 42 H       -1.4760     8.6000     1.7320 H     1 <1>   0.0800 
 43 H       -1.7800     7.1470     0.7840 H     1 <1>   0.0800 
 44 H       -2.4830     7.3220     2.4020 H     1 <1>   0.0800 
 45 H       -5.7760    11.4720    -1.3340 H     1 <1>   0.0800 
 46 H       -7.0830    10.3740    -0.9050 H     1 <1>   0.0800 
 47 H       -6.0670    10.0450    -2.3220 H     1 <1>   0.0800 
@<TRIPOS>BOND
  1   1   2  2   
  2   2   3  1   
  3   2   4  1   
  4   3   5  1   
  5   4   6  2   
  6   4   7  1   
  7   5   8  1   
  8   5  27  1   
  9   5  28  1   
 10   6   9  1   
 11   6  10  1   
 12   7  11  2   
 13   7  29  1   
 14   8  30  1   
 15   8  31  1   
 16   8  32  1   
 17   9  12  1   
 18   9  13  1   
 19  10  33  1   
 20  10  34  1   
 21  10  35  1   
 22  11  13  1   
 23  12  14  2   
 24  13  15  2   
 25  14  15  1   
 26  14  16  1   
 27  15  17  1   
 28  16  36  1   
 29  16  37  1   
 30  16  38  1   
 31  17  18  ar  
 32  17  19  ar  
 33  18  20  ar  
 34  18  39  1   
 35  19  21  ar  
 36  19  40  1   
 37  20  22  1   
 38  20  23  ar  
 39  21  23  ar  
 40  21  41  1   
 41  22  24  1   
 42  23  25  1   
 43  24  42  1   
 44  24  43  1   
 45  24  44  1   
 46  25  26  1   
 47  26  45  1   
 48  26  46  1   
 49  26  47  1   
@<TRIPOS>SUBSTRUCTURE
  1 ****  13 GROUP 4 **** **** 0

# MOE 2024.06 (io_trps.svl 2023.06)
