@<TRIPOS>MOLECULE
1-(3-Chloro-4-methoxy-benzenesulfonyl)-piperidine-4-carboxylic acid (3-isopropox
57 58 1 0 0 
SMALL
USER_CHARGES


@<TRIPOS>ATOM
  1 CL       0.2460    -0.0560    -0.2080 Cl    1 <1>  -0.1770 
  2 C        1.8870    -0.6650    -0.1930 C.ar  1 <1>   0.1770 
  3 C        2.3180    -1.5830    -1.1440 C.ar  1 <1>   0.0830 
  4 C        2.7460    -0.2010     0.7860 C.ar  1 <1>  -0.1500 
  5 O        1.5080    -2.0520    -2.1170 O.3   1 <1>  -0.3630 
  6 C        3.6320    -2.0180    -1.1090 C.ar  1 <1>  -0.1500 
  7 C        4.0670    -0.6360     0.8350 C.ar  1 <1>  -0.0090 
  8 C        0.5770    -3.0430    -1.7450 C.3   1 <1>   0.0400 
  9 C        4.4900    -1.5500    -0.1270 C.ar  1 <1>  -0.1500 
 10 S        5.2030    -0.0380     2.1180 S.o2  1 <1>   1.4470 
 11 O        5.5290    -1.1360     3.0000 O.2   1 <1>  -0.6500 
 12 O        4.7080     1.2000     2.6810 O.2   1 <1>  -0.6500 
 13 N        6.6050     0.3500     1.2460 N.am  1 <1>  -0.8490 
 14 C        7.7730     0.4460     2.1240 C.3   1 <1>   0.1960 
 15 C        6.4340     1.5640     0.4410 C.3   1 <1>   0.1960 
 16 C        9.0460     0.6390     1.2960 C.3   1 <1>  -0.1600 
 17 C        7.6570     1.7810    -0.4520 C.3   1 <1>  -0.1600 
 18 C        8.9460     1.8720     0.3830 C.3   1 <1>  -0.0190 
 19 C       10.1960     2.0140    -0.4840 C.2   1 <1>   0.5690 
 20 O       10.3150     1.3400    -1.4780 O.2   1 <1>  -0.5700 
 21 N       11.1520     2.8990    -0.0980 N.am  1 <1>  -0.7300 
 22 C       12.4430     3.1020    -0.7870 C.3   1 <1>   0.1400 
 23 C       13.5680     3.0430     0.2420 C.3   1 <1>  -0.1600 
 24 C       14.9290     3.1950    -0.4300 C.3   1 <1>   0.1200 
 25 O       15.8910     3.1810     0.5730 O.3   1 <1>  -0.5600 
 26 C       17.2080     3.2670     0.1420 C.3   1 <1>   0.2000 
 27 C       18.0630     2.6230     1.2280 C.3   1 <1>  -0.2400 
 28 C       17.5720     4.7400    -0.0460 C.3   1 <1>  -0.2400 
 29 H        2.3830     0.5060     1.5120 H     1 <1>   0.1500 
 30 H        3.9770    -2.7190    -1.8490 H     1 <1>   0.1500 
 31 H        0.0360    -3.3430    -2.6240 H     1 <1>   0.0800 
 32 H       -0.1030    -2.6380    -1.0180 H     1 <1>   0.0800 
 33 H        1.1090    -3.8840    -1.3340 H     1 <1>   0.0800 
 34 H        5.5110    -1.8970    -0.1050 H     1 <1>   0.1500 
 35 H        7.8750    -0.4610     2.6980 H     1 <1>   0.0800 
 36 H        7.6460     1.2660     2.8130 H     1 <1>   0.0800 
 37 H        6.2940     2.4180     1.0850 H     1 <1>   0.0800 
 38 H        5.5610     1.4690    -0.1840 H     1 <1>   0.0800 
 39 H        9.2060    -0.2420     0.6970 H     1 <1>   0.0800 
 40 H        9.8890     0.7420     1.9560 H     1 <1>   0.0800 
 41 H        7.5310     2.6840    -1.0220 H     1 <1>   0.0800 
 42 H        7.7260     0.9620    -1.1480 H     1 <1>   0.0800 
 43 H        8.8730     2.7450     1.0060 H     1 <1>   0.0800 
 44 H       11.0220     3.4490     0.7510 H     1 <1>   0.3700 
 45 H       12.4360     4.0600    -1.2790 H     1 <1>   0.0800 
 46 H       12.5850     2.3360    -1.5330 H     1 <1>   0.0800 
 47 H       13.5390     2.0940     0.7480 H     1 <1>   0.0800 
 48 H       13.4440     3.8360     0.9580 H     1 <1>   0.0800 
 49 H       14.9890     4.1300    -0.9600 H     1 <1>   0.0800 
 50 H       15.1140     2.3740    -1.1020 H     1 <1>   0.0800 
 51 H       17.3210     2.7170    -0.7790 H     1 <1>   0.0800 
 52 H       17.9380     3.1450     2.1600 H     1 <1>   0.0800 
 53 H       19.1010     2.6560     0.9500 H     1 <1>   0.0800 
 54 H       17.7760     1.5950     1.3560 H     1 <1>   0.0800 
 55 H       17.3890     5.2850     0.8620 H     1 <1>   0.0800 
 56 H       17.0020     5.1750    -0.8450 H     1 <1>   0.0800 
 57 H       18.6140     4.8280    -0.2950 H     1 <1>   0.0800 
@<TRIPOS>BOND
  1   1   2  1   
  2   2   3  ar  
  3   2   4  ar  
  4   3   5  1   
  5   3   6  ar  
  6   4   7  ar  
  7   4  29  1   
  8   5   8  1   
  9   6   9  ar  
 10   6  30  1   
 11   7   9  ar  
 12   7  10  1   
 13   8  31  1   
 14   8  32  1   
 15   8  33  1   
 16   9  34  1   
 17  10  11  2   
 18  10  12  2   
 19  10  13  am  
 20  13  14  1   
 21  13  15  1   
 22  14  16  1   
 23  14  35  1   
 24  14  36  1   
 25  15  17  1   
 26  15  37  1   
 27  15  38  1   
 28  16  18  1   
 29  16  39  1   
 30  16  40  1   
 31  17  18  1   
 32  17  41  1   
 33  17  42  1   
 34  18  19  1   
 35  18  43  1   
 36  19  20  2   
 37  19  21  am  
 38  21  22  1   
 39  21  44  1   
 40  22  23  1   
 41  22  45  1   
 42  22  46  1   
 43  23  24  1   
 44  23  47  1   
 45  23  48  1   
 46  24  25  1   
 47  24  49  1   
 48  24  50  1   
 49  25  26  1   
 50  26  27  1   
 51  26  28  1   
 52  26  51  1   
 53  27  52  1   
 54  27  53  1   
 55  27  54  1   
 56  28  55  1   
 57  28  56  1   
 58  28  57  1   
@<TRIPOS>SUBSTRUCTURE
  1 ****  17 GROUP 4 **** **** 0

# MOE 2024.06 (io_trps.svl 2023.06)
