@<TRIPOS>MOLECULE
1-(4-Isopropyl-phenyl)-4,6-dimethyl-2-oxo-1,2-dihydro-pyridine-3-carbonitrile
38 39 1 0 0 
SMALL
USER_CHARGES


@<TRIPOS>ATOM
  1 O       -0.4750     0.1080    -0.8400 O.2   1 <1>  -0.5700 
  2 C       -1.4820     0.7310    -0.5160 C.2   1 <1>   0.6160 
  3 N       -2.6040     0.0350    -0.0630 N.am  1 <1>  -0.2860 
  4 C       -1.5260     2.1590    -0.5930 C.2   1 <1>   0.0790 
  5 C       -2.5660    -1.3760     0.0130 C.ar  1 <1>   0.1170 
  6 C       -3.7440     0.7400     0.3070 C.2   1 <1>  -0.0290 
  7 C       -0.3450     2.8120    -1.0660 C.1   1 <1>   0.4920 
  8 C       -2.6610     2.8340    -0.2240 C.2   1 <1>  -0.1380 
  9 C       -2.1400    -2.0100     1.1720 C.ar  1 <1>  -0.1500 
 10 C       -2.9680    -2.1530    -1.0640 C.ar  1 <1>  -0.1500 
 11 C       -3.7770     2.0960     0.2310 C.2   1 <1>  -0.1500 
 12 C       -4.9580    -0.0390     0.8000 C.3   1 <1>  -0.1020 
 13 N        0.5590     3.4040    -1.4340 N.1   1 <1>  -0.5570 
 14 C       -2.8250     4.3510    -0.2640 C.3   1 <1>  -0.1020 
 15 C       -2.1260    -3.3910     1.2560 C.ar  1 <1>  -0.1500 
 16 C       -2.9540    -3.5340    -0.9810 C.ar  1 <1>  -0.1500 
 17 C       -2.5350    -4.1680     0.1810 C.ar  1 <1>  -0.1430 
 18 C       -2.5130    -5.6910     0.2900 C.3   1 <1>   0.0630 
 19 C       -1.5540    -6.2980    -0.7390 C.3   1 <1>  -0.2400 
 20 C       -3.9220    -6.2720     0.1310 C.3   1 <1>  -0.2400 
 21 H       -1.8170    -1.4170     2.0080 H     1 <1>   0.1500 
 22 H       -3.2880    -1.6720    -1.9700 H     1 <1>   0.1500 
 23 H       -4.6600     2.6420     0.5170 H     1 <1>   0.1500 
 24 H       -4.7030    -0.6090     1.6760 H     1 <1>   0.0800 
 25 H       -5.3020    -0.7130     0.0360 H     1 <1>   0.0800 
 26 H       -5.7650     0.6240     1.0530 H     1 <1>   0.0800 
 27 H       -3.6400     4.6130    -0.9140 H     1 <1>   0.0800 
 28 H       -1.9430     4.8550    -0.6180 H     1 <1>   0.0800 
 29 H       -3.0440     4.7200     0.7230 H     1 <1>   0.0800 
 30 H       -1.7910    -3.8580     2.1650 H     1 <1>   0.1500 
 31 H       -3.2690    -4.1140    -1.8300 H     1 <1>   0.1500 
 32 H       -2.1560    -5.9620     1.2690 H     1 <1>   0.0800 
 33 H       -1.8900    -6.1010    -1.7400 H     1 <1>   0.0800 
 34 H       -1.4850    -7.3630    -0.6020 H     1 <1>   0.0800 
 35 H       -0.5730    -5.8730    -0.6180 H     1 <1>   0.0800 
 36 H       -4.3090    -6.0730    -0.8520 H     1 <1>   0.0800 
 37 H       -4.5820    -5.8310     0.8560 H     1 <1>   0.0800 
 38 H       -3.9050    -7.3360     0.2850 H     1 <1>   0.0800 
@<TRIPOS>BOND
  1   1   2  2   
  2   2   3  am  
  3   2   4  1   
  4   3   5  1   
  5   3   6  1   
  6   4   7  1   
  7   4   8  2   
  8   5   9  ar  
  9   5  10  ar  
 10   6  11  2   
 11   6  12  1   
 12   7  13  3   
 13   8  11  1   
 14   8  14  1   
 15   9  15  ar  
 16   9  21  1   
 17  10  16  ar  
 18  10  22  1   
 19  11  23  1   
 20  12  24  1   
 21  12  25  1   
 22  12  26  1   
 23  14  27  1   
 24  14  28  1   
 25  14  29  1   
 26  15  17  ar  
 27  15  30  1   
 28  16  17  ar  
 29  16  31  1   
 30  17  18  1   
 31  18  19  1   
 32  18  20  1   
 33  18  32  1   
 34  19  33  1   
 35  19  34  1   
 36  19  35  1   
 37  20  36  1   
 38  20  37  1   
 39  20  38  1   
@<TRIPOS>SUBSTRUCTURE
  1 ****   5 GROUP 4 **** **** 0

# MOE 2024.06 (io_trps.svl 2023.06)
