@<TRIPOS>MOLECULE
N-[2-(4-Isobutyryl-piperazin-1-yl)-phenyl]-acetamide
44 45 1 0 0 
SMALL
USER_CHARGES


@<TRIPOS>ATOM
  1 O       -0.8570     0.8520    -1.3060 O.2   1 <1>  -0.5700 
  2 C       -1.1770     1.2630    -0.2140 C.2   1 <1>   0.5690 
  3 N       -1.0940     2.6030     0.0840 N.am  1 <1>  -0.6600 
  4 C       -1.6930     0.2450     0.8200 C.3   1 <1>  -0.0190 
  5 C       -1.6830     3.2860     1.2780 C.3   1 <1>   0.1400 
  6 C       -0.5250     3.5760    -0.9000 C.3   1 <1>   0.1400 
  7 C       -1.0620    -1.1500     0.6500 C.3   1 <1>  -0.2400 
  8 C       -3.2250     0.1200     0.7590 C.3   1 <1>  -0.2400 
  9 C       -2.7580     4.3100     0.8640 C.3   1 <1>   0.2090 
 10 C       -1.5890     4.5860    -1.3610 C.3   1 <1>   0.2090 
 11 N       -2.3010     5.2420    -0.2160 N.pl3 1 <1>  -0.8380 
 12 C       -1.8610     6.5220     0.1720 C.ar  1 <1>   0.1000 
 13 C       -2.6350     7.6520    -0.1320 C.ar  1 <1>   0.1170 
 14 C       -0.6640     6.6890     0.8560 C.ar  1 <1>  -0.1500 
 15 N       -3.8330     7.4220    -0.8290 N.am  1 <1>  -0.5470 
 16 C       -2.1950     8.9100     0.2580 C.ar  1 <1>  -0.1500 
 17 C       -0.2340     7.9470     1.2400 C.ar  1 <1>  -0.1500 
 18 C       -4.8200     8.2300    -1.3020 C.2   1 <1>   0.5690 
 19 C       -1.0000     9.0590     0.9410 C.ar  1 <1>  -0.1500 
 20 O       -4.8360     9.4290    -1.1830 O.2   1 <1>  -0.5700 
 21 C       -5.9650     7.5650    -2.0220 C.3   1 <1>  -0.1790 
 22 H       -1.4090     0.5850     1.7980 H     1 <1>   0.0800 
 23 H       -0.9000     3.7940     1.8120 H     1 <1>   0.0800 
 24 H       -2.1290     2.5820     1.9530 H     1 <1>   0.0800 
 25 H       -0.1330     3.0650    -1.7610 H     1 <1>   0.0800 
 26 H        0.2910     4.1040    -0.4430 H     1 <1>   0.0800 
 27 H       -1.3320    -1.5720    -0.3030 H     1 <1>   0.0800 
 28 H       -1.3920    -1.8140     1.4280 H     1 <1>   0.0800 
 29 H        0.0110    -1.0760     0.6930 H     1 <1>   0.0800 
 30 H       -3.5250    -0.2530    -0.2050 H     1 <1>   0.0800 
 31 H       -3.6900     1.0770     0.9110 H     1 <1>   0.0800 
 32 H       -3.5790    -0.5580     1.5160 H     1 <1>   0.0800 
 33 H       -3.0520     4.8830     1.7270 H     1 <1>   0.0800 
 34 H       -3.6260     3.7790     0.5150 H     1 <1>   0.0800 
 35 H       -2.3100     4.0720    -1.9730 H     1 <1>   0.0800 
 36 H       -1.1200     5.3400    -1.9710 H     1 <1>   0.0800 
 37 H       -0.0630     5.8330     1.0900 H     1 <1>   0.1500 
 38 H       -3.9320     6.4180    -0.9980 H     1 <1>   0.3700 
 39 H       -2.7800     9.7820     0.0320 H     1 <1>   0.1500 
 40 H        0.6960     8.0620     1.7710 H     1 <1>   0.1500 
 41 H       -0.6720    10.0400     1.2380 H     1 <1>   0.1500 
 42 H       -5.5960     7.0390    -2.8820 H     1 <1>   0.0800 
 43 H       -6.6710     8.3080    -2.3440 H     1 <1>   0.0800 
 44 H       -6.4590     6.8780    -1.3610 H     1 <1>   0.0800 
@<TRIPOS>BOND
  1   1   2  2   
  2   2   3  am  
  3   2   4  1   
  4   3   5  1   
  5   3   6  1   
  6   4   7  1   
  7   4   8  1   
  8   4  22  1   
  9   5   9  1   
 10   5  23  1   
 11   5  24  1   
 12   6  10  1   
 13   6  25  1   
 14   6  26  1   
 15   7  27  1   
 16   7  28  1   
 17   7  29  1   
 18   8  30  1   
 19   8  31  1   
 20   8  32  1   
 21   9  11  1   
 22   9  33  1   
 23   9  34  1   
 24  10  11  1   
 25  10  35  1   
 26  10  36  1   
 27  11  12  1   
 28  12  13  ar  
 29  12  14  ar  
 30  13  15  1   
 31  13  16  ar  
 32  14  17  ar  
 33  14  37  1   
 34  15  18  am  
 35  15  38  1   
 36  16  19  ar  
 37  16  39  1   
 38  17  19  ar  
 39  17  40  1   
 40  18  20  2   
 41  18  21  1   
 42  19  41  1   
 43  21  42  1   
 44  21  43  1   
 45  21  44  1   
@<TRIPOS>SUBSTRUCTURE
  1 ****  11 GROUP 4 **** **** 0

# MOE 2024.06 (io_trps.svl 2023.06)
