@<TRIPOS>MOLECULE
1-(4-Methoxy-3-methyl-benzenesulfonyl)-piperidine-4-carboxylic acid
39 40 1 0 0 
SMALL
USER_CHARGES


@<TRIPOS>ATOM
  1 S       -0.0670     0.2640     1.7370 S.o2  1 <1>   1.4470 
  2 O        0.4660    -0.7180     2.6570 O.2   1 <1>  -0.6500 
  3 O       -0.4940     1.5480     2.2540 O.2   1 <1>  -0.6500 
  4 N        1.1140     0.5620     0.5610 N.am  1 <1>  -0.8490 
  5 C       -1.4100    -0.4970     0.7820 C.ar  1 <1>  -0.0090 
  6 C        2.4380     0.7830     1.1520 C.3   1 <1>   0.1960 
  7 C        0.7460     1.6700    -0.3300 C.3   1 <1>   0.1960 
  8 C       -2.7390    -0.1700     1.0210 C.ar  1 <1>  -0.1500 
  9 C       -1.1420    -1.4360    -0.2070 C.ar  1 <1>  -0.1500 
 10 C        3.5060     0.8880     0.0590 C.3   1 <1>  -0.1600 
 11 C        1.7490     1.7940    -1.4780 C.3   1 <1>  -0.1600 
 12 C       -3.7730    -0.7450     0.3000 C.ar  1 <1>  -0.1440 
 13 C       -2.1600    -2.0220    -0.9370 C.ar  1 <1>  -0.1500 
 14 C        3.1780     2.0040    -0.9480 C.3   1 <1>  -0.1860 
 15 C       -3.4850    -1.6790    -0.6900 C.ar  1 <1>   0.0820 
 16 C       -5.2130    -0.3520     0.5980 C.3   1 <1>  -0.0970 
 17 C        4.2080     2.0810    -2.0700 C.2   1 <1>   0.9060 
 18 O       -4.5270    -2.2180    -1.3760 O.3   1 <1>  -0.3630 
 19 O        4.9490     3.0680    -2.1120 O.co2 1 <1>  -0.9000 
 20 O        4.2720     1.1650    -2.8970 O.co2 1 <1>  -0.9000 
 21 C       -4.3330    -3.1830    -2.3850 C.3   1 <1>   0.0400 
 22 H        2.6920    -0.0420     1.7970 H     1 <1>   0.0800 
 23 H        2.4280     1.6840     1.7440 H     1 <1>   0.0800 
 24 H        0.7180     2.5940     0.2250 H     1 <1>   0.0800 
 25 H       -0.2330     1.4960    -0.7440 H     1 <1>   0.0800 
 26 H       -2.9610     0.5530     1.7890 H     1 <1>   0.1500 
 27 H       -0.1180    -1.7070    -0.4070 H     1 <1>   0.1500 
 28 H        3.5760    -0.0520    -0.4600 H     1 <1>   0.0800 
 29 H        4.4640     1.0850     0.5060 H     1 <1>   0.0800 
 30 H        1.4800     2.6210    -2.1090 H     1 <1>   0.0800 
 31 H        1.7150     0.9000    -2.0780 H     1 <1>   0.0800 
 32 H       -1.8980    -2.7390    -1.6920 H     1 <1>   0.1500 
 33 H        3.2130     2.9460    -0.4330 H     1 <1>   0.0800 
 34 H       -5.2640     0.3790     1.3840 H     1 <1>   0.0800 
 35 H       -5.7720    -1.2200     0.8980 H     1 <1>   0.0800 
 36 H       -5.6670     0.0610    -0.2850 H     1 <1>   0.0800 
 37 H       -5.2970    -3.4550    -2.7760 H     1 <1>   0.0800 
 38 H       -3.8560    -4.0460    -1.9560 H     1 <1>   0.0800 
 39 H       -3.7300    -2.7540    -3.1660 H     1 <1>   0.0800 
@<TRIPOS>BOND
  1   1   2  2   
  2   1   3  2   
  3   1   4  am  
  4   1   5  1   
  5   4   6  1   
  6   4   7  1   
  7   5   8  ar  
  8   5   9  ar  
  9   6  10  1   
 10   6  22  1   
 11   6  23  1   
 12   7  11  1   
 13   7  24  1   
 14   7  25  1   
 15   8  12  ar  
 16   8  26  1   
 17   9  13  ar  
 18   9  27  1   
 19  10  14  1   
 20  10  28  1   
 21  10  29  1   
 22  11  14  1   
 23  11  30  1   
 24  11  31  1   
 25  12  15  ar  
 26  12  16  1   
 27  13  15  ar  
 28  13  32  1   
 29  14  17  1   
 30  14  33  1   
 31  15  18  1   
 32  16  34  1   
 33  16  35  1   
 34  16  36  1   
 35  17  19  ar  
 36  17  20  ar  
 37  18  21  1   
 38  21  37  1   
 39  21  38  1   
 40  21  39  1   
@<TRIPOS>SUBSTRUCTURE
  1 ****   4 GROUP 4 **** **** 0

# MOE 2024.06 (io_trps.svl 2023.06)
