@<TRIPOS>MOLECULE
N-{4-[2-Hydroxy-3-(2-isopropyl-benzoimidazol-1-yl)-propoxy]-phenyl}-acetamide
52 54 1 0 0 
SMALL
USER_CHARGES


@<TRIPOS>ATOM
  1 O       -0.1090     0.1450    -0.3970 O.2   1 <1>  -0.5700 
  2 C       -0.2640     1.3020    -0.1000 C.2   1 <1>   0.5690 
  3 N       -1.4790     1.8980     0.0810 N.am  1 <1>  -0.5470 
  4 C        0.9590     2.1610     0.0990 C.3   1 <1>  -0.1790 
  5 C       -2.7840     1.3890    -0.0430 C.ar  1 <1>   0.1170 
  6 C       -3.8210     2.0510     0.6050 C.ar  1 <1>  -0.1500 
  7 C       -3.0910     0.2620    -0.7990 C.ar  1 <1>  -0.1500 
  8 C       -5.1270     1.6050     0.5090 C.ar  1 <1>  -0.1500 
  9 C       -4.3950    -0.1890    -0.8990 C.ar  1 <1>  -0.1500 
 10 C       -5.4210     0.4730    -0.2470 C.ar  1 <1>   0.0820 
 11 O       -6.6700    -0.0400    -0.3940 O.3   1 <1>  -0.3630 
 12 C       -7.7730     0.5160     0.2900 C.3   1 <1>   0.1200 
 13 C       -9.0440    -0.2760    -0.0460 C.3   1 <1>   0.2000 
 14 O       -9.4040    -0.0310    -1.3670 O.3   1 <1>  -0.6800 
 15 C      -10.2090     0.1140     0.8740 C.3   1 <1>   0.0960 
 16 N      -11.4290    -0.6430     0.5240 N.pl3 1 <1>   0.0480 
 17 C      -11.6630    -1.9390     0.8650 C.ar  1 <1>  -0.1520 
 18 C      -12.4820    -0.2730    -0.2650 C.2   1 <1>   0.0060 
 19 C      -12.8560    -2.2730     0.2560 C.ar  1 <1>   0.2270 
 20 C      -10.9660    -2.8730     1.6390 C.ar  1 <1>  -0.1500 
 21 N      -13.3450    -1.2160    -0.4430 N.2   1 <1>  -0.5650 
 22 C      -12.6150     1.1290    -0.8690 C.3   1 <1>   0.1000 
 23 C      -13.3850    -3.5530     0.4050 C.ar  1 <1>  -0.1500 
 24 C      -11.4940    -4.1370     1.7820 C.ar  1 <1>  -0.1500 
 25 C      -13.2680     2.0740     0.1450 C.3   1 <1>  -0.2400 
 26 C      -13.4270     1.1190    -2.1710 C.3   1 <1>  -0.2400 
 27 C      -12.7040    -4.4790     1.1660 C.ar  1 <1>  -0.1500 
 28 H       -1.4370     2.8660     0.3870 H     1 <1>   0.3700 
 29 H        1.0030     2.5030     1.1150 H     1 <1>   0.0800 
 30 H        0.9270     3.0030    -0.5670 H     1 <1>   0.0800 
 31 H        1.8420     1.5870    -0.1120 H     1 <1>   0.0800 
 32 H       -3.6060     2.9240     1.1930 H     1 <1>   0.1500 
 33 H       -2.3150    -0.2680    -1.3190 H     1 <1>   0.1500 
 34 H       -5.8950     2.1480     1.0240 H     1 <1>   0.1500 
 35 H       -4.6230    -1.0610    -1.4850 H     1 <1>   0.1500 
 36 H       -7.8840     1.5440    -0.0070 H     1 <1>   0.0800 
 37 H       -7.5650     0.4550     1.3440 H     1 <1>   0.0800 
 38 H       -8.8370    -1.3280     0.0570 H     1 <1>   0.0800 
 39 H      -10.0890    -0.6710    -1.6570 H     1 <1>   0.4000 
 40 H      -10.4000     1.1680     0.8000 H     1 <1>   0.0800 
 41 H       -9.9550    -0.1070     1.8940 H     1 <1>   0.0800 
 42 H      -10.0380    -2.6100     2.1140 H     1 <1>   0.1500 
 43 H      -11.6360     1.5030    -1.1110 H     1 <1>   0.0800 
 44 H      -14.3150    -3.7840    -0.0800 H     1 <1>   0.1500 
 45 H      -10.9810    -4.8770     2.3710 H     1 <1>   0.1500 
 46 H      -14.2530     1.7190     0.3920 H     1 <1>   0.0800 
 47 H      -13.3480     3.0660    -0.2620 H     1 <1>   0.0800 
 48 H      -12.6870     2.1170     1.0480 H     1 <1>   0.0800 
 49 H      -14.4330     0.7870    -1.9830 H     1 <1>   0.0800 
 50 H      -12.9750     0.4450    -2.8770 H     1 <1>   0.0800 
 51 H      -13.4600     2.1020    -2.6040 H     1 <1>   0.0800 
 52 H      -13.0980    -5.4720     1.2910 H     1 <1>   0.1500 
@<TRIPOS>BOND
  1   1   2  2   
  2   2   3  am  
  3   2   4  1   
  4   3   5  1   
  5   3  28  1   
  6   4  29  1   
  7   4  30  1   
  8   4  31  1   
  9   5   6  ar  
 10   5   7  ar  
 11   6   8  ar  
 12   6  32  1   
 13   7   9  ar  
 14   7  33  1   
 15   8  10  ar  
 16   8  34  1   
 17   9  10  ar  
 18   9  35  1   
 19  10  11  1   
 20  11  12  1   
 21  12  13  1   
 22  12  36  1   
 23  12  37  1   
 24  13  14  1   
 25  13  15  1   
 26  13  38  1   
 27  14  39  1   
 28  15  16  1   
 29  15  40  1   
 30  15  41  1   
 31  16  17  1   
 32  16  18  1   
 33  17  19  ar  
 34  17  20  ar  
 35  18  21  2   
 36  18  22  1   
 37  19  21  1   
 38  19  23  ar  
 39  20  24  ar  
 40  20  42  1   
 41  22  25  1   
 42  22  26  1   
 43  22  43  1   
 44  23  27  ar  
 45  23  44  1   
 46  24  27  ar  
 47  24  45  1   
 48  25  46  1   
 49  25  47  1   
 50  25  48  1   
 51  26  49  1   
 52  26  50  1   
 53  26  51  1   
 54  27  52  1   
@<TRIPOS>SUBSTRUCTURE
  1 ****  12 GROUP 4 **** **** 0

# MOE 2024.06 (io_trps.svl 2023.06)
