@<TRIPOS>MOLECULE
3-(4-Methylsulfamoyl-phenyl)-propionic acid
28 28 1 0 0 
SMALL
USER_CHARGES


@<TRIPOS>ATOM
  1 S       -0.1770     0.1060     0.8120 S.o2  1 <1>   1.4470 
  2 O       -0.1280    -1.3340     0.9150 O.2   1 <1>  -0.6500 
  3 O       -0.7820     0.8930     1.8620 O.2   1 <1>  -0.6500 
  4 N       -1.0760     0.3690    -0.5830 N.am  1 <1>  -0.9140 
  5 C        1.4530     0.7720     0.3890 C.ar  1 <1>  -0.0090 
  6 C       -2.5170     0.3590    -0.3520 C.3   1 <1>   0.1160 
  7 C        1.5930     2.0860    -0.0400 C.ar  1 <1>  -0.1500 
  8 C        2.5990    -0.0080     0.4930 C.ar  1 <1>  -0.1500 
  9 C        2.8360     2.6070    -0.3550 C.ar  1 <1>  -0.1500 
 10 C        3.8440     0.5080     0.1800 C.ar  1 <1>  -0.1500 
 11 C        3.9670     1.8190    -0.2460 C.ar  1 <1>  -0.1430 
 12 C        5.3350     2.3940    -0.5720 C.3   1 <1>  -0.0170 
 13 C        5.9500     3.0340     0.6730 C.3   1 <1>  -0.2660 
 14 C        7.3040     3.5980     0.3490 C.2   1 <1>   0.9060 
 15 O        7.3730     4.7650    -0.0430 O.co2 1 <1>  -0.9000 
 16 O        8.2860     2.8610     0.4620 O.co2 1 <1>  -0.9000 
 17 H       -0.8500    -0.4410    -1.1590 H     1 <1>   0.4200 
 18 H       -2.7960     1.1860     0.2800 H     1 <1>   0.0800 
 19 H       -2.8150    -0.5610     0.1260 H     1 <1>   0.0800 
 20 H       -3.0380     0.4530    -1.2890 H     1 <1>   0.0800 
 21 H        0.7200     2.7090    -0.1250 H     1 <1>   0.1500 
 22 H        2.5210    -1.0290     0.8260 H     1 <1>   0.1500 
 23 H        2.9270     3.6300    -0.6780 H     1 <1>   0.1500 
 24 H        4.7230    -0.1070     0.2730 H     1 <1>   0.1500 
 25 H        5.2510     3.1350    -1.3480 H     1 <1>   0.0800 
 26 H        5.9890     1.6180    -0.9320 H     1 <1>   0.0800 
 27 H        6.0640     2.3050     1.4510 H     1 <1>   0.0800 
 28 H        5.3280     3.8310     1.0310 H     1 <1>   0.0800 
@<TRIPOS>BOND
  1   1   2  2   
  2   1   3  2   
  3   1   4  am  
  4   1   5  1   
  5   4   6  1   
  6   4  17  1   
  7   5   7  ar  
  8   5   8  ar  
  9   6  18  1   
 10   6  19  1   
 11   6  20  1   
 12   7   9  ar  
 13   7  21  1   
 14   8  10  ar  
 15   8  22  1   
 16   9  11  ar  
 17   9  23  1   
 18  10  11  ar  
 19  10  24  1   
 20  11  12  1   
 21  12  13  1   
 22  12  25  1   
 23  12  26  1   
 24  13  14  1   
 25  13  27  1   
 26  13  28  1   
 27  14  15  ar  
 28  14  16  ar  
@<TRIPOS>SUBSTRUCTURE
  1 ****   9 GROUP 4 **** **** 0

# MOE 2024.06 (io_trps.svl 2023.06)
