@<TRIPOS>MOLECULE
N-[2-(4-Ethyl-piperazin-1-yl)-2-oxo-ethyl]-N-(3-trifluoromethyl-phenyl)-methanes
49 50 1 0 0 
SMALL
USER_CHARGES


@<TRIPOS>ATOM
  1 S        0.6690     2.0090    -2.2900 S.o2  1 <1>   1.3330 
  2 O        1.6310     2.7330    -3.0860 O.2   1 <1>  -0.6500 
  3 O        1.1360     0.9580    -1.4190 O.2   1 <1>  -0.6500 
  4 N       -0.1200     3.1900    -1.3050 N.am  1 <1>  -0.6930 
  5 C       -0.6420     1.4260    -3.3430 C.3   1 <1>  -0.1350 
  6 C       -1.2230     2.8470    -0.5330 C.ar  1 <1>   0.1990 
  7 C        0.7480     4.2870    -0.7690 C.3   1 <1>   0.2570 
  8 C       -1.1200     1.9380     0.5130 C.ar  1 <1>  -0.1500 
  9 C       -2.4570     3.4250    -0.7970 C.ar  1 <1>  -0.1500 
 10 C        1.5620     3.8720     0.4680 C.2   1 <1>   0.5690 
 11 C       -2.2180     1.5990     1.2940 C.ar  1 <1>  -0.1440 
 12 C       -3.5620     3.0960    -0.0360 C.ar  1 <1>  -0.1500 
 13 O        1.1200     4.1840     1.5490 O.2   1 <1>  -0.5700 
 14 N        2.7340     3.1530     0.3900 N.am  1 <1>  -0.6600 
 15 C       -3.4450     2.1880     1.0020 C.ar  1 <1>  -0.1500 
 16 C       -2.0890     0.5960     2.4510 C.3   1 <1>   1.1630 
 17 C        3.6030     3.0340    -0.8230 C.3   1 <1>   0.1400 
 18 C        3.1510     2.2910     1.5400 C.3   1 <1>   0.1400 
 19 F       -2.8040     0.9490     3.5130 F     1 <1>  -0.3400 
 20 F       -0.8390     0.4450     2.8780 F     1 <1>  -0.3400 
 21 F       -2.5120    -0.6120     2.1040 F     1 <1>  -0.3400 
 22 C        5.0960     3.1720    -0.4670 C.3   1 <1>   0.3430 
 23 C        4.6450     2.4610     1.8590 C.3   1 <1>   0.3430 
 24 N        5.5050     2.2390     0.6440 N.4   1 <1>  -0.9590 
 25 C        6.9440     2.3580     0.9900 C.3   1 <1>   0.3430 
 26 C        7.7940     1.7650    -0.1280 C.3   1 <1>  -0.2400 
 27 H       -0.2640     0.6980    -4.0340 H     1 <1>   0.0800 
 28 H       -1.0610     2.2420    -3.8990 H     1 <1>   0.0800 
 29 H       -1.4170     0.9730    -2.7570 H     1 <1>   0.0800 
 30 H        0.1130     5.1050    -0.4790 H     1 <1>   0.0800 
 31 H        1.3970     4.6550    -1.5390 H     1 <1>   0.0800 
 32 H       -0.1590     1.4990     0.7150 H     1 <1>   0.1500 
 33 H       -2.5450     4.1340    -1.5990 H     1 <1>   0.1500 
 34 H       -4.5160     3.5490    -0.2480 H     1 <1>   0.1500 
 35 H       -4.3180     1.9450     1.5870 H     1 <1>   0.1500 
 36 H        3.3540     3.7930    -1.5420 H     1 <1>   0.0800 
 37 H        3.4440     2.0740    -1.2840 H     1 <1>   0.0800 
 38 H        2.9460     1.2630     1.2970 H     1 <1>   0.0800 
 39 H        2.5800     2.5290     2.4220 H     1 <1>   0.0800 
 40 H        5.2840     4.1910    -0.1720 H     1 <1>   0.0800 
 41 H        5.6790     2.9710    -1.3510 H     1 <1>   0.0800 
 42 H        4.9170     1.7640     2.6340 H     1 <1>   0.0800 
 43 H        4.8000     3.4580     2.2390 H     1 <1>   0.0800 
 44 H        5.3310     1.2780     0.3180 H     1 <1>   0.4500 
 45 H        7.1440     1.8170     1.9010 H     1 <1>   0.0800 
 46 H        7.2060     3.3930     1.1480 H     1 <1>   0.0800 
 47 H        7.5250     0.7400    -0.3120 H     1 <1>   0.0800 
 48 H        8.8280     1.7870     0.1680 H     1 <1>   0.0800 
 49 H        7.7050     2.3330    -1.0360 H     1 <1>   0.0800 
@<TRIPOS>BOND
  1   1   2  2   
  2   1   3  2   
  3   1   4  am  
  4   1   5  1   
  5   4   6  1   
  6   4   7  1   
  7   5  27  1   
  8   5  28  1   
  9   5  29  1   
 10   6   8  ar  
 11   6   9  ar  
 12   7  10  1   
 13   7  30  1   
 14   7  31  1   
 15   8  11  ar  
 16   8  32  1   
 17   9  12  ar  
 18   9  33  1   
 19  10  13  2   
 20  10  14  am  
 21  11  15  ar  
 22  11  16  1   
 23  12  15  ar  
 24  12  34  1   
 25  14  17  1   
 26  14  18  1   
 27  15  35  1   
 28  16  19  1   
 29  16  20  1   
 30  16  21  1   
 31  17  22  1   
 32  17  36  1   
 33  17  37  1   
 34  18  23  1   
 35  18  38  1   
 36  18  39  1   
 37  22  24  1   
 38  22  40  1   
 39  22  41  1   
 40  23  24  1   
 41  23  42  1   
 42  23  43  1   
 43  24  25  1   
 44  24  44  1   
 45  25  26  1   
 46  25  45  1   
 47  25  46  1   
 48  26  47  1   
 49  26  48  1   
 50  26  49  1   
@<TRIPOS>SUBSTRUCTURE
  1 ****  10 GROUP 4 **** **** 0

# MOE 2024.06 (io_trps.svl 2023.06)
