@<TRIPOS>MOLECULE
8-(3-Methoxy-propyl)-1,6,7-trimethyl-3-(3-phenyl-propyl)-1H,8H-imidazo[2,1-f]pur
61 64 1 0 0 
SMALL
USER_CHARGES


@<TRIPOS>ATOM
  1 O        1.4960    -0.0670     2.4200 O.2   1 <1>  -0.5740 
  2 C        2.1640     0.7840     1.8700 C.2   1 <1>   0.6870 
  3 N        1.6010     2.0130     1.5390 N.am  1 <1>  -0.4240 
  4 N        3.4980     0.5290     1.5770 N.am  1 <1>  -0.4400 
  5 C        2.3540     3.0160     0.9390 C.2   1 <1>   0.7000 
  6 C        0.1470     2.2430     1.7960 C.3   1 <1>   0.1340 
  7 C        4.2400     1.5340     0.9920 C.2   1 <1>   0.4220 
  8 C        4.1170    -0.7920     1.8960 C.3   1 <1>   0.0540 
  9 O        1.8510     4.0920     0.6630 O.2   1 <1>  -0.5740 
 10 C        3.7270     2.7450     0.6640 C.2   1 <1>   0.2720 
 11 C       -0.6700     1.8170     0.5730 C.3   1 <1>  -0.1660 
 12 N        5.5570     1.4990     0.6500 N.pl3 1 <1>  -0.7030 
 13 N        4.7820     3.4740     0.0840 N.pl3 1 <1>  -0.6320 
 14 C       -2.1720     1.9980     0.8150 C.3   1 <1>  -0.0230 
 15 C        5.8430     2.6780     0.1030 C.cat 1 <1>   1.0690 
 16 C        5.1820     4.6490    -0.5170 C.2   1 <1>   0.2350 
 17 C       -2.9550     1.5760    -0.4170 C.ar  1 <1>  -0.1490 
 18 N        6.9170     3.2560    -0.4440 N.pl3 1 <1>  -0.5710 
 19 C        6.4920     4.5160    -0.8420 C.2   1 <1>   0.1590 
 20 C        4.2010     5.7890    -0.7060 C.3   1 <1>  -0.1080 
 21 C       -3.2690     0.2410    -0.6180 C.ar  1 <1>  -0.1560 
 22 C       -3.3560     2.5170    -1.3520 C.ar  1 <1>  -0.1560 
 23 C        8.2760     2.6620    -0.5570 C.3   1 <1>   0.1620 
 24 C        7.4300     5.5000    -1.5210 C.3   1 <1>  -0.1080 
 25 C       -3.9770    -0.1500    -1.7420 C.ar  1 <1>  -0.1560 
 26 C       -4.0660     2.1280    -2.4760 C.ar  1 <1>  -0.1560 
 27 C        8.2700     1.4220    -1.4660 C.3   1 <1>  -0.1660 
 28 C       -4.3760     0.7940    -2.6710 C.ar  1 <1>  -0.1560 
 29 C        8.6390     0.1320    -0.7260 C.3   1 <1>   0.1140 
 30 O        7.7550    -0.0660     0.3330 O.3   1 <1>  -0.5640 
 31 C        8.0650    -1.1970     1.0900 C.3   1 <1>   0.0340 
 32 H       -0.0300     3.2830     2.0100 H     1 <1>   0.0740 
 33 H       -0.1670     1.6790     2.6590 H     1 <1>   0.0740 
 34 H        3.3620    -1.5580     1.9610 H     1 <1>   0.0740 
 35 H        4.6280    -0.7320     2.8410 H     1 <1>   0.0740 
 36 H        4.8150    -1.0740     1.1280 H     1 <1>   0.0740 
 37 H       -0.4790     0.7800     0.3550 H     1 <1>   0.0740 
 38 H       -0.3830     2.4070    -0.2800 H     1 <1>   0.0740 
 39 H        6.2530     0.7400     0.6860 H     1 <1>   0.4460 
 40 H       -2.3870     3.0280     1.0430 H     1 <1>   0.0740 
 41 H       -2.4840     1.4030     1.6550 H     1 <1>   0.0740 
 42 H        3.3740     5.4660    -1.3130 H     1 <1>   0.0740 
 43 H        4.6690     6.6280    -1.1860 H     1 <1>   0.0740 
 44 H        3.8210     6.1080     0.2480 H     1 <1>   0.0740 
 45 H       -2.9600    -0.5000     0.0980 H     1 <1>   0.1440 
 46 H       -3.1180     3.5560    -1.2110 H     1 <1>   0.1440 
 47 H        8.6330     2.4050     0.4270 H     1 <1>   0.0740 
 48 H        8.9570     3.3910    -0.9620 H     1 <1>   0.0740 
 49 H        7.8180     5.0740    -2.4290 H     1 <1>   0.0740 
 50 H        8.2510     5.7390    -0.8690 H     1 <1>   0.0740 
 51 H        6.9190     6.4120    -1.7680 H     1 <1>   0.0740 
 52 H       -4.2170    -1.1870    -1.8910 H     1 <1>   0.1440 
 53 H       -4.3750     2.8640    -3.1970 H     1 <1>   0.1440 
 54 H        9.0080     1.5680    -2.2350 H     1 <1>   0.0740 
 55 H        7.3250     1.2960    -1.9650 H     1 <1>   0.0740 
 56 H       -4.9270     0.4920    -3.5440 H     1 <1>   0.1440 
 57 H        9.6400     0.2020    -0.3320 H     1 <1>   0.0740 
 58 H        8.5780    -0.7130    -1.3920 H     1 <1>   0.0740 
 59 H        8.0100    -2.0720     0.4640 H     1 <1>   0.0740 
 60 H        7.3530    -1.2810     1.8920 H     1 <1>   0.0740 
 61 H        9.0550    -1.0930     1.5010 H     1 <1>   0.0740 
@<TRIPOS>BOND
  1   1   2  2   
  2   2   3  am  
  3   2   4  am  
  4   3   5  am  
  5   3   6  1   
  6   4   7  1   
  7   4   8  1   
  8   5   9  2   
  9   5  10  1   
 10   6  11  1   
 11   6  32  1   
 12   6  33  1   
 13   7  10  2   
 14   7  12  1   
 15   8  34  1   
 16   8  35  1   
 17   8  36  1   
 18  10  13  1   
 19  11  14  1   
 20  11  37  1   
 21  11  38  1   
 22  12  15  ar  
 23  12  39  1   
 24  13  15  ar  
 25  13  16  1   
 26  14  17  1   
 27  14  40  1   
 28  14  41  1   
 29  15  18  ar  
 30  16  19  2   
 31  16  20  1   
 32  17  21  ar  
 33  17  22  ar  
 34  18  19  1   
 35  18  23  1   
 36  19  24  1   
 37  20  42  1   
 38  20  43  1   
 39  20  44  1   
 40  21  25  ar  
 41  21  45  1   
 42  22  26  ar  
 43  22  46  1   
 44  23  27  1   
 45  23  47  1   
 46  23  48  1   
 47  24  49  1   
 48  24  50  1   
 49  24  51  1   
 50  25  28  ar  
 51  25  52  1   
 52  26  28  ar  
 53  26  53  1   
 54  27  29  1   
 55  27  54  1   
 56  27  55  1   
 57  28  56  1   
 58  29  30  1   
 59  29  57  1   
 60  29  58  1   
 61  30  31  1   
 62  31  59  1   
 63  31  60  1   
 64  31  61  1   
@<TRIPOS>SUBSTRUCTURE
  1 ****  10 GROUP 4 **** **** 0

# MOE 2024.06 (io_trps.svl 2023.06)
