@<TRIPOS>MOLECULE
2,4-Dichloro-N-[1-(5-mercapto-4-methyl-4H-[1,2,4]triazol-3-yl)-2-methyl-propyl]-
38 39 1 0 0 
SMALL
USER_CHARGES


@<TRIPOS>ATOM
  1 CL       1.3800    -0.0900     1.1280 Cl    1 <1>  -0.1770 
  2 C        1.7340    -1.4880     0.1410 C.ar  1 <1>   0.1770 
  3 C        2.7000    -1.4380    -0.8720 C.ar  1 <1>   0.0860 
  4 C        1.0050    -2.6310     0.4120 C.ar  1 <1>  -0.1500 
  5 C        3.4950    -0.2650    -1.1860 C.2   1 <1>   0.5440 
  6 C        2.8910    -2.6090    -1.6150 C.ar  1 <1>  -0.1500 
  7 C        1.2340    -3.7630    -0.3430 C.ar  1 <1>   0.1770 
  8 O        3.8060    -0.0340    -2.3350 O.2   1 <1>  -0.5700 
  9 N        3.9520     0.5910    -0.2300 N.am  1 <1>  -0.7300 
 10 C        2.1710    -3.7620    -1.3570 C.ar  1 <1>  -0.1500 
 11 CL       0.3270    -5.2120    -0.0120 Cl    1 <1>  -0.1770 
 12 C        4.8120     1.7720    -0.5390 C.3   1 <1>   0.3880 
 13 C        6.2100     1.3580    -1.0490 C.2   1 <1>   0.4850 
 14 C        4.8870     2.7080     0.6980 C.3   1 <1>  -0.0800 
 15 N        6.7400     1.8340    -2.1230 N.2   1 <1>  -0.2600 
 16 N        7.0480     0.4590    -0.4100 N.pl3 1 <1>  -0.7640 
 17 C        3.4960     3.1690     1.1740 C.3   1 <1>  -0.2400 
 18 C        5.7400     3.9590     0.4170 C.3   1 <1>  -0.2400 
 19 N        7.9570     1.2180    -2.1910 N.pl3 1 <1>  -0.3930 
 20 C        8.1210     0.4030    -1.1740 C.cat 1 <1>   0.7360 
 21 C        6.8690    -0.4020     0.7760 C.3   1 <1>   0.2740 
 22 S        9.4280    -0.5230    -0.9140 S.3   1 <1>  -0.9360 
 23 H        0.2690    -2.6420     1.1950 H     1 <1>   0.1500 
 24 H        3.6200    -2.6080    -2.4110 H     1 <1>   0.1500 
 25 H        3.5080     0.6000     0.6900 H     1 <1>   0.3700 
 26 H        2.3310    -4.6550    -1.9370 H     1 <1>   0.1500 
 27 H        4.3370     2.3190    -1.3360 H     1 <1>   0.0800 
 28 H        5.3610     2.1730     1.5020 H     1 <1>   0.0800 
 29 H        2.9700     3.6720     0.3800 H     1 <1>   0.0800 
 30 H        3.5900     3.8510     2.0010 H     1 <1>   0.0800 
 31 H        2.8980     2.3400     1.5070 H     1 <1>   0.0800 
 32 H        5.3390     4.5170    -0.4110 H     1 <1>   0.0800 
 33 H        6.7580     3.6920     0.1920 H     1 <1>   0.0800 
 34 H        5.7590     4.6010     1.2800 H     1 <1>   0.0800 
 35 H        8.6680     1.3070    -2.9160 H     1 <1>   0.4500 
 36 H        6.0490    -0.0600     1.3790 H     1 <1>   0.0800 
 37 H        7.7680    -0.3920     1.3700 H     1 <1>   0.0800 
 38 H        6.6810    -1.4130     0.4570 H     1 <1>   0.0800 
@<TRIPOS>BOND
  1   1   2  1   
  2   2   3  ar  
  3   2   4  ar  
  4   3   5  1   
  5   3   6  ar  
  6   4   7  ar  
  7   4  23  1   
  8   5   8  2   
  9   5   9  am  
 10   6  10  ar  
 11   6  24  1   
 12   7  10  ar  
 13   7  11  1   
 14   9  12  1   
 15   9  25  1   
 16  10  26  1   
 17  12  13  1   
 18  12  14  1   
 19  12  27  1   
 20  13  15  2   
 21  13  16  1   
 22  14  17  1   
 23  14  18  1   
 24  14  28  1   
 25  15  19  1   
 26  16  20  ar  
 27  16  21  1   
 28  17  29  1   
 29  17  30  1   
 30  17  31  1   
 31  18  32  1   
 32  18  33  1   
 33  18  34  1   
 34  19  20  ar  
 35  19  35  1   
 36  20  22  1   
 37  21  36  1   
 38  21  37  1   
 39  21  38  1   
@<TRIPOS>SUBSTRUCTURE
  1 ****   9 GROUP 4 **** **** 0

# MOE 2024.06 (io_trps.svl 2023.06)
