@<TRIPOS>MOLECULE
N-(2-Ethyl-2H-tetrazol-5-yl)-2-(4-methoxy-phenoxy)-acetamide
35 36 1 0 0 
SMALL
USER_CHARGES


@<TRIPOS>ATOM
  1 O       -0.7170    -2.4550     3.0660 O.2   1 <1>  -0.5700 
  2 C       -0.2950    -2.4270     1.9360 C.2   1 <1>   0.5690 
  3 N       -1.0450    -2.0880     0.8550 N.am  1 <1>  -0.4930 
  4 C        1.1660    -2.7950     1.7150 C.3   1 <1>   0.1810 
  5 C       -2.3730    -1.7130     0.7460 C.2   1 <1>   0.5790 
  6 O        1.5140    -2.7180     0.3380 O.3   1 <1>  -0.3630 
  7 N       -3.2360    -1.6000     1.7530 N.2   1 <1>  -0.2270 
  8 N       -2.8580    -1.4420    -0.4040 N.2   1 <1>  -0.7070 
  9 C        2.7730    -3.0070    -0.0820 C.ar  1 <1>   0.0830 
 10 N       -4.3380    -1.2340     1.2260 N.2   1 <1>  -0.4180 
 11 N       -4.1000    -1.1400    -0.0700 N.pl3 1 <1>   0.5800 
 12 C        3.8080    -3.3920     0.7690 C.ar  1 <1>  -0.1500 
 13 C        3.0130    -2.9040    -1.4430 C.ar  1 <1>  -0.1500 
 14 C       -5.1250    -0.7400    -1.0560 C.3   1 <1>   0.0960 
 15 C        5.0640    -3.6680     0.2550 C.ar  1 <1>  -0.1500 
 16 C        4.2680    -3.1800    -1.9550 C.ar  1 <1>  -0.1500 
 17 C       -5.0510     0.7610    -1.3750 C.3   1 <1>  -0.2400 
 18 C        5.3000    -3.5630    -1.1140 C.ar  1 <1>   0.0830 
 19 O        6.5000    -3.8160    -1.6980 O.3   1 <1>  -0.3630 
 20 C        7.6160    -4.2130    -0.9330 C.3   1 <1>   0.0400 
 21 H       -0.5700    -2.1050    -0.0440 H     1 <1>   0.3700 
 22 H        1.3330    -3.8010     2.0540 H     1 <1>   0.0800 
 23 H        1.7890    -2.1120     2.2630 H     1 <1>   0.0800 
 24 H        3.6600    -3.4830     1.8280 H     1 <1>   0.1500 
 25 H        2.2160    -2.6070    -2.1000 H     1 <1>   0.1500 
 26 H       -6.0910    -0.9850    -0.6540 H     1 <1>   0.0800 
 27 H       -4.9700    -1.3160    -1.9500 H     1 <1>   0.0800 
 28 H        5.8440    -3.9630     0.9300 H     1 <1>   0.1500 
 29 H        4.4560    -3.1000    -3.0100 H     1 <1>   0.1500 
 30 H       -5.2150     1.3400    -0.4830 H     1 <1>   0.0800 
 31 H       -5.8080     1.0190    -2.0940 H     1 <1>   0.0800 
 32 H       -4.0880     1.0070    -1.7880 H     1 <1>   0.0800 
 33 H        8.4450    -4.3550    -1.6030 H     1 <1>   0.0800 
 34 H        7.3870    -5.1380    -0.4350 H     1 <1>   0.0800 
 35 H        7.8480    -3.4380    -0.2240 H     1 <1>   0.0800 
@<TRIPOS>BOND
  1   1   2  2   
  2   2   3  am  
  3   2   4  1   
  4   3   5  1   
  5   3  21  1   
  6   4   6  1   
  7   4  22  1   
  8   4  23  1   
  9   5   7  1   
 10   5   8  2   
 11   6   9  1   
 12   7  10  2   
 13   8  11  1   
 14   9  12  ar  
 15   9  13  ar  
 16  10  11  1   
 17  11  14  1   
 18  12  15  ar  
 19  12  24  1   
 20  13  16  ar  
 21  13  25  1   
 22  14  17  1   
 23  14  26  1   
 24  14  27  1   
 25  15  18  ar  
 26  15  28  1   
 27  16  18  ar  
 28  16  29  1   
 29  17  30  1   
 30  17  31  1   
 31  17  32  1   
 32  18  19  1   
 33  19  20  1   
 34  20  33  1   
 35  20  34  1   
 36  20  35  1   
@<TRIPOS>SUBSTRUCTURE
  1 ****   6 GROUP 4 **** **** 0

# MOE 2024.06 (io_trps.svl 2023.06)
