@<TRIPOS>MOLECULE
3-(5-Fluoro-1H-benzoimidazol-2-yl)-propylamine
27 28 1 0 0 
SMALL
USER_CHARGES


@<TRIPOS>ATOM
  1 F        1.9640    -0.2150     2.3020 F     1 <1>  -0.1900 
  2 C        2.6830    -0.8310     1.3990 C.ar  1 <1>   0.1900 
  3 C        4.0510    -0.8280     1.5250 C.ar  1 <1>  -0.1500 
  4 C        2.0120    -1.4630     0.3480 C.ar  1 <1>  -0.1500 
  5 C        4.7870    -1.4910     0.5450 C.ar  1 <1>   0.2270 
  6 C        2.7430    -2.1200    -0.6170 C.ar  1 <1>  -0.1500 
  7 N        6.1380    -1.6390     0.4210 N.2   1 <1>  -0.5650 
  8 C        4.1380    -2.1240    -0.5010 C.ar  1 <1>  -0.1520 
  9 C        6.2940    -2.3410    -0.6490 C.2   1 <1>   0.0060 
 10 N        5.1220    -2.6680    -1.2580 N.pl3 1 <1>   0.0330 
 11 C        7.6260    -2.8070    -1.2310 C.3   1 <1>   0.0200 
 12 C        8.8770    -2.5730    -0.3560 C.3   1 <1>  -0.1600 
 13 C        9.3550    -1.1170    -0.2840 C.3   1 <1>   0.3430 
 14 N        8.5960    -0.3750     0.7400 N.4   1 <1>  -0.8530 
 15 H        4.5400    -0.3400     2.3440 H     1 <1>   0.1500 
 16 H        0.9380    -1.4250     0.3120 H     1 <1>   0.1500 
 17 H        2.2590    -2.6190    -1.4400 H     1 <1>   0.1500 
 18 H        4.9850    -3.2280    -2.1050 H     1 <1>   0.2700 
 19 H        7.7670    -2.3420    -2.1920 H     1 <1>   0.0800 
 20 H        7.5450    -3.8670    -1.4040 H     1 <1>   0.0800 
 21 H        9.6760    -3.1390    -0.8020 H     1 <1>   0.0800 
 22 H        8.7250    -2.9770     0.6300 H     1 <1>   0.0800 
 23 H        9.2330    -0.6500    -1.2490 H     1 <1>   0.0800 
 24 H       10.4040    -1.0950    -0.0320 H     1 <1>   0.0800 
 25 H        8.7230     0.6390     0.6840 H     1 <1>   0.4500 
 26 H        8.8180    -0.6990     1.6850 H     1 <1>   0.4500 
 27 H        7.5870    -0.5840     0.6090 H     1 <1>   0.4500 
@<TRIPOS>BOND
  1   1   2  1   
  2   2   3  ar  
  3   2   4  ar  
  4   3   5  ar  
  5   3  15  1   
  6   4   6  ar  
  7   4  16  1   
  8   5   7  1   
  9   5   8  ar  
 10   6   8  ar  
 11   6  17  1   
 12   7   9  2   
 13   8  10  1   
 14   9  10  1   
 15   9  11  1   
 16  10  18  1   
 17  11  12  1   
 18  11  19  1   
 19  11  20  1   
 20  12  13  1   
 21  12  21  1   
 22  12  22  1   
 23  13  14  1   
 24  13  23  1   
 25  13  24  1   
 26  14  25  1   
 27  14  26  1   
 28  14  27  1   
@<TRIPOS>SUBSTRUCTURE
  1 ****   5 GROUP 4 **** **** 0

# MOE 2024.06 (io_trps.svl 2023.06)
