@<TRIPOS>MOLECULE
2,7,7-Trimethyl-5-oxo-4-pyridin-2-yl-1,4,5,6,7,8-hexahydro-quinoline-3-carboxyli
54 57 1 0 0 
SMALL
USER_CHARGES


@<TRIPOS>ATOM
  1 F       -1.1890     0.0760     1.3340 F     1 <1>  -0.1900 
  2 C       -2.3450    -0.4520     1.0250 C.ar  1 <1>   0.1900 
  3 C       -2.3710    -1.5900     0.2420 C.ar  1 <1>  -0.1500 
  4 C       -3.4990     0.1480     1.4920 C.ar  1 <1>  -0.1500 
  5 C       -3.5980    -2.1430    -0.0800 C.ar  1 <1>  -0.1500 
  6 C       -4.7180    -0.4160     1.1600 C.ar  1 <1>  -0.1500 
  7 C       -4.7820    -1.5640     0.3730 C.ar  1 <1>   0.1170 
  8 N       -6.0390    -2.1030     0.0800 N.am  1 <1>  -0.5470 
  9 C       -6.5120    -2.6940    -1.0710 C.2   1 <1>   0.6160 
 10 O       -5.7580    -2.8440    -2.0150 O.2   1 <1>  -0.5700 
 11 C       -7.9080    -3.0720    -1.1400 C.2   1 <1>   0.0140 
 12 C       -8.3990    -4.1640    -1.8100 C.2   1 <1>  -0.0380 
 13 C       -8.8640    -2.2350    -0.4240 C.2   1 <1>   0.0000 
 14 N       -9.7250    -4.5240    -1.6610 N.pl3 1 <1>  -0.6000 
 15 C       -7.6150    -5.1160    -2.7020 C.3   1 <1>  -0.1020 
 16 C       -9.9890    -2.9790     0.1380 C.2   1 <1>   0.0140 
 17 C       -8.7640    -0.8550    -0.4460 C.2   1 <1>   0.1000 
 18 C      -10.4580    -4.0250    -0.6100 C.2   1 <1>  -0.0380 
 19 C      -10.5960    -2.6910     1.4100 C.2   1 <1>   0.4950 
 20 N       -9.3870    -0.0340     0.5240 N.pl3 1 <1>  -0.6000 
 21 C       -8.0390    -0.1070    -1.4400 C.2   1 <1>  -0.1500 
 22 C      -11.7640    -4.7450    -0.3050 C.3   1 <1>  -0.0220 
 23 O      -10.1090    -1.9860     2.2640 O.2   1 <1>  -0.5700 
 24 C      -11.9080    -3.3660     1.7850 C.3   1 <1>  -0.0990 
 25 C       -9.2610     1.3470     0.5580 C.2   1 <1>  -0.0500 
 26 C       -7.9200     1.2440    -1.4220 C.2   1 <1>  -0.1500 
 27 C      -12.7000    -3.8930     0.5740 C.3   1 <1>   0.0000 
 28 C       -8.5450     1.9930    -0.3870 C.2   1 <1>  -0.1500 
 29 C      -13.8760    -4.7530     1.0640 C.3   1 <1>  -0.2400 
 30 C      -13.2730    -2.7150    -0.2380 C.3   1 <1>  -0.2400 
 31 H       -1.4540    -2.0300    -0.1050 H     1 <1>   0.1500 
 32 H       -3.4390     1.0350     2.0970 H     1 <1>   0.1500 
 33 H       -3.6390    -3.0300    -0.6870 H     1 <1>   0.1500 
 34 H       -5.6290     0.0400     1.5080 H     1 <1>   0.1500 
 35 H       -6.7820    -1.8230     0.7220 H     1 <1>   0.3700 
 36 H      -10.0990    -5.2920    -2.2310 H     1 <1>   0.4000 
 37 H       -7.7980    -4.8790    -3.7340 H     1 <1>   0.0800 
 38 H       -7.9190    -6.1310    -2.5200 H     1 <1>   0.0800 
 39 H       -6.5580    -5.0670    -2.5220 H     1 <1>   0.0800 
 40 H       -9.8120    -0.5170     1.3340 H     1 <1>   0.4000 
 41 H       -7.5840    -0.6540    -2.2460 H     1 <1>   0.1500 
 42 H      -11.5280    -5.6690     0.1940 H     1 <1>   0.0800 
 43 H      -12.2660    -4.9880    -1.2260 H     1 <1>   0.0800 
 44 H      -12.5110    -2.6690     2.3400 H     1 <1>   0.0800 
 45 H      -11.6690    -4.1800     2.4440 H     1 <1>   0.0800 
 46 H       -9.7520     1.8640     1.3670 H     1 <1>   0.1500 
 47 H       -7.3700     1.7780    -2.1760 H     1 <1>   0.1500 
 48 H       -8.4290     3.0620    -0.3880 H     1 <1>   0.1500 
 49 H      -13.5240    -5.5910     1.6410 H     1 <1>   0.0800 
 50 H      -14.4420    -5.1320     0.2300 H     1 <1>   0.0800 
 51 H      -14.5370    -4.1720     1.6830 H     1 <1>   0.0800 
 52 H      -12.4950    -2.0760    -0.6190 H     1 <1>   0.0800 
 53 H      -13.9260    -2.1160     0.3730 H     1 <1>   0.0800 
 54 H      -13.8410    -3.0760    -1.0770 H     1 <1>   0.0800 
@<TRIPOS>BOND
  1   1   2  1   
  2   2   3  ar  
  3   2   4  ar  
  4   3   5  ar  
  5   3  31  1   
  6   4   6  ar  
  7   4  32  1   
  8   5   7  ar  
  9   5  33  1   
 10   6   7  ar  
 11   6  34  1   
 12   7   8  1   
 13   8   9  am  
 14   8  35  1   
 15   9  10  2   
 16   9  11  1   
 17  11  12  2   
 18  11  13  1   
 19  12  14  1   
 20  12  15  1   
 21  13  16  1   
 22  13  17  2   
 23  14  18  1   
 24  14  36  1   
 25  15  37  1   
 26  15  38  1   
 27  15  39  1   
 28  16  18  2   
 29  16  19  1   
 30  17  20  1   
 31  17  21  1   
 32  18  22  1   
 33  19  23  2   
 34  19  24  1   
 35  20  25  1   
 36  20  40  1   
 37  21  26  2   
 38  21  41  1   
 39  22  27  1   
 40  22  42  1   
 41  22  43  1   
 42  24  27  1   
 43  24  44  1   
 44  24  45  1   
 45  25  28  2   
 46  25  46  1   
 47  26  28  1   
 48  26  47  1   
 49  27  29  1   
 50  27  30  1   
 51  28  48  1   
 52  29  49  1   
 53  29  50  1   
 54  29  51  1   
 55  30  52  1   
 56  30  53  1   
 57  30  54  1   
@<TRIPOS>SUBSTRUCTURE
  1 ****  13 GROUP 4 **** **** 0

# MOE 2024.06 (io_trps.svl 2023.06)
