@<TRIPOS>MOLECULE
2-(4-Methyl-piperazin-1-yl)-6-oxo-3,4,5,6-tetrahydro-pyrimidine-4-carboxylic aci
53 55 1 0 0 
SMALL
USER_CHARGES


@<TRIPOS>ATOM
  1 O       -0.1950    -0.4070    -0.0940 O.2   1 <1>  -0.5700 
  2 C       -0.0840    -1.5910    -0.0280 C.2   1 <1>   0.8520 
  3 N       -1.1970    -2.3490     0.0370 N.pl3 1 <1>  -0.8600 
  4 C        1.2720    -2.2500    -0.0030 C.3   1 <1>  -0.0990 
  5 C       -1.2130    -3.6600    -0.0010 C.cat 1 <1>   1.2000 
  6 C        1.1900    -3.5850    -0.7410 C.3   1 <1>   0.3090 
  7 N       -2.3100    -4.3610     0.3290 N.pl3 1 <1>  -0.7220 
  8 N       -0.1000    -4.2430    -0.3700 N.pl3 1 <1>  -0.8440 
  9 C        2.3790    -4.5200    -0.4310 C.2   1 <1>   0.5690 
 10 C       -3.5760    -3.7450     0.8850 C.3   1 <1>   0.1680 
 11 C       -2.3630    -5.8750     0.3180 C.3   1 <1>   0.1680 
 12 O        2.0940    -5.6050     0.0240 O.2   1 <1>  -0.5700 
 13 N        3.6640    -4.1080    -0.6760 N.am  1 <1>  -0.5470 
 14 C       -4.8630    -4.3290     0.2530 C.3   1 <1>   0.3430 
 15 C       -3.6650    -6.4340    -0.3050 C.3   1 <1>   0.3430 
 16 C        4.8840    -4.7750    -0.4660 C.ar  1 <1>   0.1170 
 17 N       -4.8980    -5.8310     0.3080 N.4   1 <1>  -0.9590 
 18 C        6.0340    -4.0130    -0.2950 C.ar  1 <1>  -0.1500 
 19 C        5.0020    -6.1630    -0.4420 C.ar  1 <1>  -0.1500 
 20 C       -6.1350    -6.3590    -0.3560 C.3   1 <1>   0.2630 
 21 C        7.2630    -4.6170    -0.1000 C.ar  1 <1>  -0.1500 
 22 C        6.2300    -6.7720    -0.2460 C.ar  1 <1>  -0.1500 
 23 C        7.3730    -5.9970    -0.0730 C.ar  1 <1>   0.0820 
 24 O        8.6160    -6.5070     0.1250 O.3   1 <1>  -0.3630 
 25 C        8.8280    -7.8970     0.1930 C.3   1 <1>   0.1200 
 26 C       10.3150    -8.1370     0.4340 C.3   1 <1>  -0.2400 
 27 H       -2.0410    -1.8030     0.1070 H     1 <1>   0.4500 
 28 H        1.5640    -2.4050     1.0210 H     1 <1>   0.0800 
 29 H        1.9970    -1.6060    -0.4650 H     1 <1>   0.0800 
 30 H        1.1830    -3.4050    -1.8040 H     1 <1>   0.0800 
 31 H        0.0380    -5.2540    -0.2590 H     1 <1>   0.4500 
 32 H       -3.5910    -2.6800     0.7380 H     1 <1>   0.0800 
 33 H       -3.6080    -3.9150     1.9490 H     1 <1>   0.0800 
 34 H       -2.2810    -6.2360     1.3300 H     1 <1>   0.0800 
 35 H       -1.5370    -6.2910    -0.2330 H     1 <1>   0.0800 
 36 H        3.7960    -3.1660    -1.0430 H     1 <1>   0.3700 
 37 H       -4.9220    -4.0050    -0.7740 H     1 <1>   0.0800 
 38 H       -5.7220    -3.9270     0.7680 H     1 <1>   0.0800 
 39 H       -3.6840    -7.5050    -0.1780 H     1 <1>   0.0800 
 40 H       -3.6550    -6.2340    -1.3640 H     1 <1>   0.0800 
 41 H       -4.9390    -6.1170     1.3000 H     1 <1>   0.4500 
 42 H        5.9800    -2.9410    -0.3080 H     1 <1>   0.1500 
 43 H        4.1370    -6.7830    -0.5810 H     1 <1>   0.1500 
 44 H       -6.1480    -6.0910    -1.4010 H     1 <1>   0.0800 
 45 H       -7.0170    -5.9540     0.1130 H     1 <1>   0.0800 
 46 H       -6.1740    -7.4350    -0.2780 H     1 <1>   0.0800 
 47 H        8.1500    -4.0240     0.0340 H     1 <1>   0.1500 
 48 H        6.2760    -7.8440    -0.2330 H     1 <1>   0.1500 
 49 H        8.5180    -8.3360    -0.7400 H     1 <1>   0.0800 
 50 H        8.2430    -8.2920     1.0060 H     1 <1>   0.0800 
 51 H       10.8910    -7.7240    -0.3750 H     1 <1>   0.0800 
 52 H       10.5090    -9.1920     0.4910 H     1 <1>   0.0800 
 53 H       10.6170    -7.6800     1.3600 H     1 <1>   0.0800 
@<TRIPOS>BOND
  1   1   2  2   
  2   2   3  1   
  3   2   4  1   
  4   3   5  ar  
  5   3  27  1   
  6   4   6  1   
  7   4  28  1   
  8   4  29  1   
  9   5   7  ar  
 10   5   8  ar  
 11   6   8  1   
 12   6   9  1   
 13   6  30  1   
 14   7  10  1   
 15   7  11  1   
 16   8  31  1   
 17   9  12  2   
 18   9  13  am  
 19  10  14  1   
 20  10  32  1   
 21  10  33  1   
 22  11  15  1   
 23  11  34  1   
 24  11  35  1   
 25  13  16  1   
 26  13  36  1   
 27  14  17  1   
 28  14  37  1   
 29  14  38  1   
 30  15  17  1   
 31  15  39  1   
 32  15  40  1   
 33  16  18  ar  
 34  16  19  ar  
 35  17  20  1   
 36  17  41  1   
 37  18  21  ar  
 38  18  42  1   
 39  19  22  ar  
 40  19  43  1   
 41  20  44  1   
 42  20  45  1   
 43  20  46  1   
 44  21  23  ar  
 45  21  47  1   
 46  22  23  ar  
 47  22  48  1   
 48  23  24  1   
 49  24  25  1   
 50  25  26  1   
 51  25  49  1   
 52  25  50  1   
 53  26  51  1   
 54  26  52  1   
 55  26  53  1   
@<TRIPOS>SUBSTRUCTURE
  1 ****   9 GROUP 4 **** **** 0

# MOE 2024.06 (io_trps.svl 2023.06)
