@<TRIPOS>MOLECULE
3-tert-Butyl-6-(4-methoxy-phenyl)-[1,2,4]triazolo[3,4-b][1,3,4]thiadiazole
36 38 1 0 0 
SMALL
USER_CHARGES


@<TRIPOS>ATOM
  1 S        0.0370    -0.1990    -0.2640 S.3   1 <1>  -0.1970 
  2 C        0.8980     1.3150    -0.1600 C.2   1 <1>   0.2420 
  3 C       -1.5060     0.6950    -0.1360 C.2   1 <1>   0.5050 
  4 N        2.1290     1.6770    -0.1680 N.2   1 <1>  -0.3380 
  5 N        0.0210     2.2940    -0.0460 N.pl3 1 <1>   0.5050 
  6 N       -1.3380     1.9660    -0.0310 N.2   1 <1>  -0.6520 
  7 C       -2.7500    -0.0500    -0.1600 C.ar  1 <1>   0.0860 
  8 N        2.0800     3.0170    -0.0500 N.2   1 <1>  -0.3380 
  9 C        0.8280     3.3710     0.0220 C.2   1 <1>   0.0060 
 10 C       -3.9680     0.6290    -0.0620 C.ar  1 <1>  -0.1500 
 11 C       -2.8140    -1.4440    -0.2790 C.ar  1 <1>  -0.1500 
 12 C        0.3020     4.8070     0.1640 C.3   1 <1>   0.1800 
 13 C       -5.1770    -0.0380    -0.0810 C.ar  1 <1>  -0.1500 
 14 C       -4.0210    -2.1190    -0.2990 C.ar  1 <1>  -0.1500 
 15 C        1.4650     5.8120     0.2140 C.3   1 <1>  -0.2400 
 16 C       -0.5070     4.9470     1.4620 C.3   1 <1>  -0.2400 
 17 C       -0.5880     5.1640    -1.0360 C.3   1 <1>  -0.2400 
 18 C       -5.2170    -1.4160    -0.1990 C.ar  1 <1>   0.0830 
 19 O       -6.4390    -1.9960    -0.2100 O.3   1 <1>  -0.3630 
 20 C       -6.5970    -3.3930    -0.3260 C.3   1 <1>   0.0400 
 21 H       -3.9680     1.7020     0.0320 H     1 <1>   0.1500 
 22 H       -1.9140    -2.0260    -0.3590 H     1 <1>   0.1500 
 23 H       -6.1030     0.5040    -0.0030 H     1 <1>   0.1500 
 24 H       -4.0150    -3.1890    -0.3920 H     1 <1>   0.1500 
 25 H        2.1080     5.5980     1.0490 H     1 <1>   0.0800 
 26 H        1.1000     6.8190     0.3130 H     1 <1>   0.0800 
 27 H        2.0520     5.7490    -0.6860 H     1 <1>   0.0800 
 28 H        0.1010     4.6750     2.3070 H     1 <1>   0.0800 
 29 H       -1.3720     4.3090     1.4470 H     1 <1>   0.0800 
 30 H       -0.8400     5.9610     1.5930 H     1 <1>   0.0800 
 31 H       -0.0370     5.0460    -1.9530 H     1 <1>   0.0800 
 32 H       -0.9240     6.1840    -0.9680 H     1 <1>   0.0800 
 33 H       -1.4540     4.5280    -1.0760 H     1 <1>   0.0800 
 34 H       -7.6490    -3.6120    -0.3110 H     1 <1>   0.0800 
 35 H       -6.1130    -3.8700     0.5070 H     1 <1>   0.0800 
 36 H       -6.1700    -3.7160    -1.2590 H     1 <1>   0.0800 
@<TRIPOS>BOND
  1   1   2  1   
  2   1   3  1   
  3   2   4  2   
  4   2   5  1   
  5   3   6  2   
  6   3   7  1   
  7   4   8  1   
  8   5   6  1   
  9   5   9  1   
 10   7  10  ar  
 11   7  11  ar  
 12   8   9  2   
 13   9  12  1   
 14  10  13  ar  
 15  10  21  1   
 16  11  14  ar  
 17  11  22  1   
 18  12  15  1   
 19  12  16  1   
 20  12  17  1   
 21  13  18  ar  
 22  13  23  1   
 23  14  18  ar  
 24  14  24  1   
 25  15  25  1   
 26  15  26  1   
 27  15  27  1   
 28  16  28  1   
 29  16  29  1   
 30  16  30  1   
 31  17  31  1   
 32  17  32  1   
 33  17  33  1   
 34  18  19  1   
 35  19  20  1   
 36  20  34  1   
 37  20  35  1   
 38  20  36  1   
@<TRIPOS>SUBSTRUCTURE
  1 ****   3 GROUP 4 **** **** 0

# MOE 2024.06 (io_trps.svl 2023.06)
