@<TRIPOS>MOLECULE
2-(4-Pyridin-2-yl-piperazin-1-yl)-N-(3-trifluoromethyl-phenyl)-acetamide
45 47 1 0 0 
SMALL
USER_CHARGES


@<TRIPOS>ATOM
  1 F        2.2880     2.2110    -1.2960 F     1 <1>  -0.3400 
  2 C        2.4810     1.5920    -0.1380 C.3   1 <1>   1.1640 
  3 F        2.2100     0.3090    -0.3490 F     1 <1>  -0.3400 
  4 F        1.5320     2.0360     0.6800 F     1 <1>  -0.3400 
  5 C        3.8980     1.8240     0.4110 C.ar  1 <1>  -0.1440 
  6 C        4.9560     1.0290    -0.0150 C.ar  1 <1>  -0.1500 
  7 C        4.1540     2.8330     1.3350 C.ar  1 <1>  -0.1500 
  8 C        6.2500     1.2180     0.4610 C.ar  1 <1>   0.1170 
  9 C        5.4340     3.0320     1.8200 C.ar  1 <1>  -0.1500 
 10 N        7.3370     0.4320     0.0580 N.am  1 <1>  -0.5470 
 11 C        6.4710     2.2290     1.3870 C.ar  1 <1>  -0.1500 
 12 C        7.5310    -0.4330    -0.9810 C.2   1 <1>   0.5690 
 13 O        6.7060    -0.6830    -1.8270 O.2   1 <1>  -0.5700 
 14 C        8.9010    -1.1110    -1.0480 C.3   1 <1>   0.1710 
 15 N        9.9710    -0.3650    -0.3190 N.3   1 <1>  -0.8100 
 16 C       11.1360    -1.2410    -0.0510 C.3   1 <1>   0.1100 
 17 C       10.4190     0.8200    -1.0980 C.3   1 <1>   0.1100 
 18 C       12.2670    -0.4980     0.6880 C.3   1 <1>   0.2090 
 19 C       11.5380     1.6010    -0.3840 C.3   1 <1>   0.2090 
 20 N       12.6950     0.7130    -0.0660 N.pl3 1 <1>  -0.8380 
 21 C       13.8660     1.3100     0.3570 C.ar  1 <1>   0.4100 
 22 N       13.7620     2.4130     1.0910 N.ar  1 <1>  -0.6200 
 23 C       15.0860     0.7330     0.0150 C.ar  1 <1>  -0.1500 
 24 C       14.9030     2.9480     1.4910 C.ar  1 <1>   0.1600 
 25 C       16.2650     1.3000     0.4390 C.ar  1 <1>  -0.1500 
 26 C       16.1590     2.4440     1.2020 C.ar  1 <1>  -0.1500 
 27 H        4.7720     0.2450    -0.7290 H     1 <1>   0.1500 
 28 H        3.3590     3.4720     1.6840 H     1 <1>   0.1500 
 29 H        5.6220     3.8140     2.5360 H     1 <1>   0.1500 
 30 H        8.2030     0.5450     0.5950 H     1 <1>   0.3700 
 31 H        7.4620     2.3920     1.7700 H     1 <1>   0.1500 
 32 H        9.1770    -1.2430    -2.0790 H     1 <1>   0.0800 
 33 H        8.7860    -2.0860    -0.6110 H     1 <1>   0.0800 
 34 H       11.5270    -1.6240    -0.9780 H     1 <1>   0.0800 
 35 H       10.8240    -2.0750     0.5530 H     1 <1>   0.0800 
 36 H        9.5880     1.4840    -1.2620 H     1 <1>   0.0800 
 37 H       10.7870     0.5070    -2.0600 H     1 <1>   0.0800 
 38 H       13.1060    -1.1590     0.8160 H     1 <1>   0.0800 
 39 H       11.9210    -0.2030     1.6640 H     1 <1>   0.0800 
 40 H       11.1520     2.0260     0.5270 H     1 <1>   0.0800 
 41 H       11.8730     2.4080    -1.0120 H     1 <1>   0.0800 
 42 H       15.0840    -0.1540    -0.5880 H     1 <1>   0.1500 
 43 H       14.8330     3.8420     2.0870 H     1 <1>   0.1500 
 44 H       17.2210     0.8750     0.1880 H     1 <1>   0.1500 
 45 H       17.0390     2.9410     1.5670 H     1 <1>   0.1500 
@<TRIPOS>BOND
  1   1   2  1   
  2   2   3  1   
  3   2   4  1   
  4   2   5  1   
  5   5   6  ar  
  6   5   7  ar  
  7   6   8  ar  
  8   6  27  1   
  9   7   9  ar  
 10   7  28  1   
 11   8  10  1   
 12   8  11  ar  
 13   9  11  ar  
 14   9  29  1   
 15  10  12  am  
 16  10  30  1   
 17  11  31  1   
 18  12  13  2   
 19  12  14  1   
 20  14  15  1   
 21  14  32  1   
 22  14  33  1   
 23  15  16  1   
 24  15  17  1   
 25  16  18  1   
 26  16  34  1   
 27  16  35  1   
 28  17  19  1   
 29  17  36  1   
 30  17  37  1   
 31  18  20  1   
 32  18  38  1   
 33  18  39  1   
 34  19  20  1   
 35  19  40  1   
 36  19  41  1   
 37  20  21  1   
 38  21  22  ar  
 39  21  23  ar  
 40  22  24  ar  
 41  23  25  ar  
 42  23  42  1   
 43  24  26  ar  
 44  24  43  1   
 45  25  26  ar  
 46  25  44  1   
 47  26  45  1   
@<TRIPOS>SUBSTRUCTURE
  1 ****  10 GROUP 4 **** **** 0

# MOE 2024.06 (io_trps.svl 2023.06)
