@<TRIPOS>MOLECULE
1-(2,5-Dimethoxy-benzenesulfonyl)-piperidine-4-carboxylic acid p-tolylamide
55 57 1 0 0 
SMALL
USER_CHARGES


@<TRIPOS>ATOM
  1 S       -0.2570    -0.2130    -1.7710 S.o2  1 <1>   1.4470 
  2 O       -0.0940    -1.4670    -2.4780 O.2   1 <1>  -0.6500 
  3 O       -0.6570     0.9410    -2.5500 O.2   1 <1>  -0.6500 
  4 N        1.2600     0.1550    -1.1040 N.am  1 <1>  -0.8490 
  5 C       -1.3340    -0.5210    -0.3430 C.ar  1 <1>  -0.0090 
  6 C        1.2570     1.4510    -0.4150 C.3   1 <1>   0.1960 
  7 C        2.3030     0.0890    -2.1320 C.3   1 <1>   0.1960 
  8 C       -2.0510     0.4940     0.2890 C.ar  1 <1>   0.0820 
  9 C       -1.4480    -1.8080     0.1700 C.ar  1 <1>  -0.1500 
 10 C        2.6100     1.7150     0.2490 C.3   1 <1>  -0.1600 
 11 C        3.6870     0.3140    -1.5190 C.3   1 <1>  -0.1600 
 12 O       -1.9550     1.7720    -0.1330 O.3   1 <1>  -0.3620 
 13 C       -2.8570     0.2290     1.3860 C.ar  1 <1>  -0.1500 
 14 C       -2.2590    -2.0870     1.2660 C.ar  1 <1>   0.0820 
 15 C        3.7540     1.6570    -0.7750 C.3   1 <1>  -0.0190 
 16 C       -3.0420     2.2670    -0.8830 C.3   1 <1>   0.0400 
 17 C       -2.9630    -1.0600     1.8700 C.ar  1 <1>  -0.1500 
 18 O       -2.4100    -3.3260     1.7990 O.3   1 <1>  -0.3630 
 19 C        5.1160     1.8780    -0.1160 C.2   1 <1>   0.5690 
 20 C       -1.7330    -4.4410     1.2600 C.3   1 <1>   0.0400 
 21 O        5.5140     1.0670     0.6840 O.2   1 <1>  -0.5700 
 22 N        5.8190     2.9950    -0.4810 N.am  1 <1>  -0.5470 
 23 C        7.0650     3.4900    -0.0620 C.ar  1 <1>   0.1170 
 24 C        7.6980     3.0880     1.1100 C.ar  1 <1>  -0.1500 
 25 C        7.6950     4.4460    -0.8510 C.ar  1 <1>  -0.1500 
 26 C        8.9210     3.6210     1.4770 C.ar  1 <1>  -0.1500 
 27 C        8.9180     4.9810    -0.4860 C.ar  1 <1>  -0.1500 
 28 C        9.5390     4.5720     0.6820 C.ar  1 <1>  -0.1430 
 29 C       10.8810     5.1530     1.0860 C.3   1 <1>  -0.0970 
 30 H        0.5040     1.4510     0.3540 H     1 <1>   0.0800 
 31 H        1.0260     2.2400    -1.1120 H     1 <1>   0.0800 
 32 H        2.1090     0.8260    -2.8950 H     1 <1>   0.0800 
 33 H        2.2920    -0.8840    -2.5980 H     1 <1>   0.0800 
 34 H       -0.8890    -2.5920    -0.3080 H     1 <1>   0.1500 
 35 H        2.7700     0.9770     1.0170 H     1 <1>   0.0800 
 36 H        2.5930     2.6810     0.7220 H     1 <1>   0.0800 
 37 H        4.4300     0.2900    -2.2960 H     1 <1>   0.0800 
 38 H        3.8990    -0.4930    -0.8390 H     1 <1>   0.0800 
 39 H       -3.3930     1.0300     1.8620 H     1 <1>   0.1500 
 40 H        3.5930     2.4400    -1.4950 H     1 <1>   0.0800 
 41 H       -2.8090     3.2700    -1.1900 H     1 <1>   0.0800 
 42 H       -3.9260     2.2630    -0.2710 H     1 <1>   0.0800 
 43 H       -3.1810     1.6440    -1.7500 H     1 <1>   0.0800 
 44 H       -3.5860    -1.2790     2.7190 H     1 <1>   0.1500 
 45 H       -2.0040    -5.3070     1.8370 H     1 <1>   0.0800 
 46 H       -0.6730    -4.2730     1.3300 H     1 <1>   0.0800 
 47 H       -2.0370    -4.5740     0.2370 H     1 <1>   0.0800 
 48 H        5.3800     3.5570    -1.2050 H     1 <1>   0.3700 
 49 H        7.2410     2.3570     1.7490 H     1 <1>   0.1500 
 50 H        7.2330     4.7760    -1.7620 H     1 <1>   0.1500 
 51 H        9.3900     3.2890     2.3860 H     1 <1>   0.1500 
 52 H        9.3870     5.7170    -1.1150 H     1 <1>   0.1500 
 53 H       10.9690     5.1860     2.1570 H     1 <1>   0.0800 
 54 H       10.9890     6.1530     0.7060 H     1 <1>   0.0800 
 55 H       11.6740     4.5440     0.6910 H     1 <1>   0.0800 
@<TRIPOS>BOND
  1   1   2  2   
  2   1   3  2   
  3   1   4  am  
  4   1   5  1   
  5   4   6  1   
  6   4   7  1   
  7   5   8  ar  
  8   5   9  ar  
  9   6  10  1   
 10   6  30  1   
 11   6  31  1   
 12   7  11  1   
 13   7  32  1   
 14   7  33  1   
 15   8  12  1   
 16   8  13  ar  
 17   9  14  ar  
 18   9  34  1   
 19  10  15  1   
 20  10  35  1   
 21  10  36  1   
 22  11  15  1   
 23  11  37  1   
 24  11  38  1   
 25  12  16  1   
 26  13  17  ar  
 27  13  39  1   
 28  14  17  ar  
 29  14  18  1   
 30  15  19  1   
 31  15  40  1   
 32  16  41  1   
 33  16  42  1   
 34  16  43  1   
 35  17  44  1   
 36  18  20  1   
 37  19  21  2   
 38  19  22  am  
 39  20  45  1   
 40  20  46  1   
 41  20  47  1   
 42  22  23  1   
 43  22  48  1   
 44  23  24  ar  
 45  23  25  ar  
 46  24  26  ar  
 47  24  49  1   
 48  25  27  ar  
 49  25  50  1   
 50  26  28  ar  
 51  26  51  1   
 52  27  28  ar  
 53  27  52  1   
 54  28  29  1   
 55  29  53  1   
 56  29  54  1   
 57  29  55  1   
@<TRIPOS>SUBSTRUCTURE
  1 ****  10 GROUP 4 **** **** 0

# MOE 2024.06 (io_trps.svl 2023.06)
