@<TRIPOS>MOLECULE
8-(4-Ethoxy-phenyl)-3-(3-hydroxy-propyl)-1,7-dimethyl-1H,8H-imidazo[2,1-f]purine
53 56 1 0 0 
SMALL
USER_CHARGES


@<TRIPOS>ATOM
  1 O        0.9050    -0.2920    -1.0940 O.2   1 <1>  -0.5740 
  2 C        1.8360     0.4670    -0.9220 C.2   1 <1>   0.6860 
  3 N        1.6090     1.8350    -0.7980 N.am  1 <1>  -0.4250 
  4 N        3.1310    -0.0370    -0.8490 N.am  1 <1>  -0.4410 
  5 C        2.6600     2.7250    -0.6200 C.2   1 <1>   0.7000 
  6 C        0.2070     2.3500    -0.8390 C.3   1 <1>   0.1330 
  7 C        4.1710     0.8550    -0.6830 C.2   1 <1>   0.4210 
  8 C        3.3840    -1.5050    -0.9720 C.3   1 <1>   0.0530 
  9 O        2.4620     3.9240    -0.5180 O.2   1 <1>  -0.5740 
 10 C        3.9810     2.1930    -0.5660 C.2   1 <1>   0.2710 
 11 C       -0.4040     2.3210     0.5640 C.3   1 <1>  -0.1670 
 12 N        5.5090     0.5810    -0.6120 N.pl3 1 <1>  -0.7030 
 13 N        5.2550     2.7580    -0.4110 N.pl3 1 <1>  -0.6330 
 14 C       -1.8400     2.8390     0.5340 C.3   1 <1>   0.1130 
 15 C        6.1230     1.7570    -0.4460 C.cat 1 <1>   1.0690 
 16 C        5.9870     3.9180    -0.2400 C.2   1 <1>   0.2230 
 17 O       -2.3330     2.8140     1.8220 O.3   1 <1>  -0.6840 
 18 N        7.3840     2.1840    -0.3080 N.pl3 1 <1>  -0.5550 
 19 C        7.2900     3.5650    -0.1780 C.2   1 <1>   0.1580 
 20 C        8.5380     1.3850    -0.3040 C.ar  1 <1>   0.3050 
 21 C        8.5220     4.4330    -0.0010 C.3   1 <1>  -0.1090 
 22 C        9.1420     1.0230    -1.4990 C.ar  1 <1>  -0.1570 
 23 C        9.0760     0.9370     0.8940 C.ar  1 <1>  -0.1570 
 24 C       10.2630     0.2130    -1.4940 C.ar  1 <1>  -0.1570 
 25 C       10.1980     0.1280     0.9020 C.ar  1 <1>  -0.1570 
 26 C       10.7980    -0.2410    -0.2990 C.ar  1 <1>   0.0750 
 27 O       11.8940    -1.0340    -0.3940 O.3   1 <1>  -0.3680 
 28 C       12.6300    -1.4780     0.7280 C.3   1 <1>   0.1130 
 29 C       13.5330    -0.3490     1.2280 C.3   1 <1>  -0.2460 
 30 H       -0.3840     1.7460    -1.5070 H     1 <1>   0.0730 
 31 H        0.1940     3.3580    -1.2210 H     1 <1>   0.0730 
 32 H        2.5080    -2.0650    -0.6880 H     1 <1>   0.0730 
 33 H        4.1910    -1.8040    -0.3270 H     1 <1>   0.0730 
 34 H        3.6290    -1.7470    -1.9910 H     1 <1>   0.0730 
 35 H        0.1760     2.9480     1.2190 H     1 <1>   0.0730 
 36 H       -0.4020     1.3090     0.9320 H     1 <1>   0.0730 
 37 H        5.9820    -0.3190    -0.6740 H     1 <1>   0.4450 
 38 H       -2.4720     2.2220    -0.0830 H     1 <1>   0.0730 
 39 H       -1.8790     3.8570     0.1850 H     1 <1>   0.0730 
 40 H        5.5240     4.8930    -0.1780 H     1 <1>   0.1430 
 41 H       -2.3570     1.9000     2.1640 H     1 <1>   0.3950 
 42 H        9.1830     4.3150    -0.8420 H     1 <1>   0.0730 
 43 H        9.0500     4.1520     0.8930 H     1 <1>   0.0730 
 44 H        8.2460     5.4690     0.0750 H     1 <1>   0.0730 
 45 H        8.7460     1.3730    -2.4350 H     1 <1>   0.1430 
 46 H        8.6220     1.2220     1.8270 H     1 <1>   0.1430 
 47 H       10.7400    -0.0730    -2.4160 H     1 <1>   0.1430 
 48 H       10.5950    -0.2030     1.8440 H     1 <1>   0.1430 
 49 H       13.2340    -2.3060     0.4000 H     1 <1>   0.0730 
 50 H       11.9530    -1.8310     1.4850 H     1 <1>   0.0730 
 51 H       14.1980    -0.0360     0.4430 H     1 <1>   0.0730 
 52 H       14.1240    -0.7000     2.0550 H     1 <1>   0.0730 
 53 H       12.9510     0.4920     1.5590 H     1 <1>   0.0730 
@<TRIPOS>BOND
  1   1   2  2   
  2   2   3  am  
  3   2   4  am  
  4   3   5  am  
  5   3   6  1   
  6   4   7  1   
  7   4   8  1   
  8   5   9  2   
  9   5  10  1   
 10   6  11  1   
 11   6  30  1   
 12   6  31  1   
 13   7  10  2   
 14   7  12  1   
 15   8  32  1   
 16   8  33  1   
 17   8  34  1   
 18  10  13  1   
 19  11  14  1   
 20  11  35  1   
 21  11  36  1   
 22  12  15  ar  
 23  12  37  1   
 24  13  15  ar  
 25  13  16  1   
 26  14  17  1   
 27  14  38  1   
 28  14  39  1   
 29  15  18  ar  
 30  16  19  2   
 31  16  40  1   
 32  17  41  1   
 33  18  19  1   
 34  18  20  1   
 35  19  21  1   
 36  20  22  ar  
 37  20  23  ar  
 38  21  42  1   
 39  21  43  1   
 40  21  44  1   
 41  22  24  ar  
 42  22  45  1   
 43  23  25  ar  
 44  23  46  1   
 45  24  26  ar  
 46  24  47  1   
 47  25  26  ar  
 48  25  48  1   
 49  26  27  1   
 50  27  28  1   
 51  28  29  1   
 52  28  49  1   
 53  28  50  1   
 54  29  51  1   
 55  29  52  1   
 56  29  53  1   
@<TRIPOS>SUBSTRUCTURE
  1 ****  15 GROUP 4 **** **** 0

# MOE 2024.06 (io_trps.svl 2023.06)
