@<TRIPOS>MOLECULE
1-(2,3-Dimethyl-phenyl)-5-oxo-pyrrolidine-3-carboxylic acid (2-methoxy-phenyl)-a
47 49 1 0 0 
SMALL
USER_CHARGES


@<TRIPOS>ATOM
  1 O        0.1070    -0.0560    -0.3100 O.2   1 <1>  -0.5700 
  2 C        1.2430    -0.2860     0.0200 C.2   1 <1>   0.5690 
  3 N        1.7170    -1.4270     0.5970 N.am  1 <1>  -0.4770 
  4 C        2.3490     0.7090    -0.1970 C.3   1 <1>  -0.0990 
  5 C        0.9990    -2.5710     0.9860 C.ar  1 <1>   0.1170 
  6 C        3.1660    -1.3300     0.8500 C.3   1 <1>   0.1400 
  7 C        3.6160    -0.1380    -0.0070 C.3   1 <1>  -0.0190 
  8 C        0.3700    -3.4190     0.0650 C.ar  1 <1>  -0.1440 
  9 C        0.9260    -2.8650     2.3410 C.ar  1 <1>  -0.1500 
 10 C        4.7720     0.6400     0.5980 C.2   1 <1>   0.5690 
 11 C       -0.3300    -4.5350     0.5230 C.ar  1 <1>  -0.1440 
 12 C        0.4500    -3.1100    -1.4310 C.3   1 <1>  -0.0970 
 13 C        0.2450    -3.9770     2.7900 C.ar  1 <1>  -0.1500 
 14 O        4.7760     0.8370     1.7880 O.2   1 <1>  -0.5700 
 15 N        5.7430     1.0860    -0.2520 N.am  1 <1>  -0.5470 
 16 C       -0.3820    -4.8070     1.8820 C.ar  1 <1>  -0.1500 
 17 C       -1.0630    -5.4800    -0.4200 C.3   1 <1>  -0.0970 
 18 C        6.9300     1.8200    -0.0670 C.ar  1 <1>   0.1170 
 19 C        7.6960     2.1130    -1.2020 C.ar  1 <1>   0.0830 
 20 C        7.3740     2.2640     1.1740 C.ar  1 <1>  -0.1500 
 21 O        7.2270     1.6590    -2.4050 O.3   1 <1>  -0.3630 
 22 C        8.8790     2.8360    -1.0780 C.ar  1 <1>  -0.1500 
 23 C        8.5510     2.9820     1.2910 C.ar  1 <1>  -0.1500 
 24 C        7.9300     1.9080    -3.6030 C.3   1 <1>   0.0400 
 25 C        9.3030     3.2680     0.1670 C.ar  1 <1>  -0.1500 
 26 H        2.2710     1.4750     0.5540 H     1 <1>   0.0800 
 27 H        2.2930     1.1440    -1.1770 H     1 <1>   0.0800 
 28 H        3.6650    -2.2390     0.5610 H     1 <1>   0.0800 
 29 H        3.3230    -1.1480     1.8990 H     1 <1>   0.0800 
 30 H        3.9140    -0.5290    -0.9630 H     1 <1>   0.0800 
 31 H        1.4020    -2.2120     3.0490 H     1 <1>   0.1500 
 32 H        1.3860    -2.6460    -1.6790 H     1 <1>   0.0800 
 33 H       -0.3470    -2.4400    -1.6990 H     1 <1>   0.0800 
 34 H        0.3740    -3.9970    -2.0290 H     1 <1>   0.0800 
 35 H        0.1960    -4.1940     3.8430 H     1 <1>   0.1500 
 36 H        5.6100     0.8700    -1.2420 H     1 <1>   0.3700 
 37 H       -0.9150    -5.6680     2.2440 H     1 <1>   0.1500 
 38 H       -1.7000    -4.9220    -1.0820 H     1 <1>   0.0800 
 39 H       -1.6790    -6.1710     0.1270 H     1 <1>   0.0800 
 40 H       -0.3550    -6.0430    -1.0000 H     1 <1>   0.0800 
 41 H        6.8080     2.0550     2.0620 H     1 <1>   0.1500 
 42 H        9.4860     3.0740    -1.9300 H     1 <1>   0.1500 
 43 H        8.8790     3.3170     2.2600 H     1 <1>   0.1500 
 44 H        7.3800     1.4640    -4.4140 H     1 <1>   0.0800 
 45 H        8.9060     1.4600    -3.5370 H     1 <1>   0.0800 
 46 H        8.0030     2.9710    -3.7520 H     1 <1>   0.0800 
 47 H       10.2180     3.8270     0.2620 H     1 <1>   0.1500 
@<TRIPOS>BOND
  1   1   2  2   
  2   2   3  am  
  3   2   4  1   
  4   3   5  1   
  5   3   6  1   
  6   4   7  1   
  7   4  26  1   
  8   4  27  1   
  9   5   8  ar  
 10   5   9  ar  
 11   6   7  1   
 12   6  28  1   
 13   6  29  1   
 14   7  10  1   
 15   7  30  1   
 16   8  11  ar  
 17   8  12  1   
 18   9  13  ar  
 19   9  31  1   
 20  10  14  2   
 21  10  15  am  
 22  11  16  ar  
 23  11  17  1   
 24  12  32  1   
 25  12  33  1   
 26  12  34  1   
 27  13  16  ar  
 28  13  35  1   
 29  15  18  1   
 30  15  36  1   
 31  16  37  1   
 32  17  38  1   
 33  17  39  1   
 34  17  40  1   
 35  18  19  ar  
 36  18  20  ar  
 37  19  21  1   
 38  19  22  ar  
 39  20  23  ar  
 40  20  41  1   
 41  21  24  1   
 42  22  25  ar  
 43  22  42  1   
 44  23  25  ar  
 45  23  43  1   
 46  24  44  1   
 47  24  45  1   
 48  24  46  1   
 49  25  47  1   
@<TRIPOS>SUBSTRUCTURE
  1 ****   7 GROUP 4 **** **** 0

# MOE 2024.06 (io_trps.svl 2023.06)
