@<TRIPOS>MOLECULE
3-Benzyl-8-(3-methoxy-propyl)-1,6,7-trimethyl-1H,8H-imidazo[2,1-f]purine-2,4-dio
55 58 1 0 0 
SMALL
USER_CHARGES


@<TRIPOS>ATOM
  1 O        1.6900     0.2280    -2.8730 O.2   1 <1>  -0.5740 
  2 C        2.3440     0.9880    -2.1880 C.2   1 <1>   0.6870 
  3 N        1.7800     2.1630    -1.7110 N.am  1 <1>  -0.4250 
  4 N        3.6680     0.6860    -1.8970 N.am  1 <1>  -0.4410 
  5 C        2.5330     3.1050    -1.0280 C.2   1 <1>   0.7000 
  6 C        0.3030     2.3220    -1.7540 C.3   1 <1>   0.2780 
  7 C        4.4030     1.6090    -1.1820 C.2   1 <1>   0.4210 
  8 C        4.2820    -0.5970    -2.3470 C.3   1 <1>   0.0530 
  9 O        2.0480     4.1770    -0.7040 O.2   1 <1>  -0.5740 
 10 C        3.8940     2.7860    -0.7400 C.2   1 <1>   0.2710 
 11 C       -0.2820     1.7620    -0.4680 C.ar  1 <1>  -0.1500 
 12 N        5.7090     1.5200    -0.8090 N.pl3 1 <1>  -0.7030 
 13 N        4.9400     3.4340    -0.0570 N.pl3 1 <1>  -0.6330 
 14 C       -0.5210     2.5940     0.6170 C.ar  1 <1>  -0.1570 
 15 C       -0.5740     0.4100    -0.3650 C.ar  1 <1>  -0.1570 
 16 C        5.9910     2.6290    -0.1310 C.cat 1 <1>   1.0690 
 17 C        5.3330     4.5300     0.6800 C.2   1 <1>   0.2350 
 18 C       -1.0420     2.0790     1.7900 C.ar  1 <1>  -0.1570 
 19 C       -1.0970    -0.1050     0.8080 C.ar  1 <1>  -0.1570 
 20 N        7.0550     3.1310     0.5050 N.pl3 1 <1>  -0.5710 
 21 C        6.6320     4.3460     1.0250 C.2   1 <1>   0.1580 
 22 C        4.3570     5.6550     0.9650 C.3   1 <1>  -0.1090 
 23 C       -1.3300     0.7290     1.8870 C.ar  1 <1>  -0.1570 
 24 C        8.4040     2.5110     0.5900 C.3   1 <1>   0.1610 
 25 C        7.5590     5.2380     1.8340 C.3   1 <1>  -0.1090 
 26 C        8.3590     1.1750     1.3500 C.3   1 <1>  -0.1660 
 27 C        8.7420    -0.0250     0.4780 C.3   1 <1>   0.1130 
 28 O        7.8890    -0.0920    -0.6220 O.3   1 <1>  -0.5640 
 29 C        8.2140    -1.1300    -1.4960 C.3   1 <1>   0.0330 
 30 H       -0.1110     1.8030    -2.6020 H     1 <1>   0.0730 
 31 H        0.0420     3.3610    -1.8570 H     1 <1>   0.0730 
 32 H        4.9560    -0.9740    -1.5980 H     1 <1>   0.0730 
 33 H        4.8190    -0.4390    -3.2660 H     1 <1>   0.0730 
 34 H        3.5220    -1.3410    -2.5160 H     1 <1>   0.0730 
 35 H        6.3970     0.7590    -0.9080 H     1 <1>   0.4450 
 36 H       -0.3020     3.6460     0.5550 H     1 <1>   0.1430 
 37 H       -0.3970    -0.2500    -1.1980 H     1 <1>   0.1430 
 38 H       -1.2270     2.7280     2.6280 H     1 <1>   0.1430 
 39 H       -1.3230    -1.1550     0.8810 H     1 <1>   0.1430 
 40 H        4.0140     6.0860     0.0420 H     1 <1>   0.0730 
 41 H        4.8170     6.4270     1.5530 H     1 <1>   0.0730 
 42 H        3.5060     5.2750     1.5030 H     1 <1>   0.0730 
 43 H       -1.7380     0.3290     2.7990 H     1 <1>   0.1430 
 44 H        9.0780     3.1790     1.0970 H     1 <1>   0.0730 
 45 H        8.7890     2.3640    -0.4060 H     1 <1>   0.0730 
 46 H        7.9140     4.7100     2.7010 H     1 <1>   0.0730 
 47 H        7.0500     6.1250     2.1630 H     1 <1>   0.0730 
 48 H        8.4010     5.5350     1.2350 H     1 <1>   0.0730 
 49 H        7.3970     1.0040     1.8010 H     1 <1>   0.0730 
 50 H        9.0730     1.2240     2.1530 H     1 <1>   0.0730 
 51 H        8.6540    -0.9410     1.0410 H     1 <1>   0.0730 
 52 H        9.7550     0.0790     0.1240 H     1 <1>   0.0730 
 53 H        8.1380    -2.0710    -0.9770 H     1 <1>   0.0730 
 54 H        9.2160    -0.9870    -1.8640 H     1 <1>   0.0730 
 55 H        7.5240    -1.1150    -2.3210 H     1 <1>   0.0730 
@<TRIPOS>BOND
  1   1   2  2   
  2   2   3  am  
  3   2   4  am  
  4   3   5  am  
  5   3   6  1   
  6   4   7  1   
  7   4   8  1   
  8   5   9  2   
  9   5  10  1   
 10   6  11  1   
 11   6  30  1   
 12   6  31  1   
 13   7  10  2   
 14   7  12  1   
 15   8  32  1   
 16   8  33  1   
 17   8  34  1   
 18  10  13  1   
 19  11  14  ar  
 20  11  15  ar  
 21  12  16  ar  
 22  12  35  1   
 23  13  16  ar  
 24  13  17  1   
 25  14  18  ar  
 26  14  36  1   
 27  15  19  ar  
 28  15  37  1   
 29  16  20  ar  
 30  17  21  2   
 31  17  22  1   
 32  18  23  ar  
 33  18  38  1   
 34  19  23  ar  
 35  19  39  1   
 36  20  21  1   
 37  20  24  1   
 38  21  25  1   
 39  22  40  1   
 40  22  41  1   
 41  22  42  1   
 42  23  43  1   
 43  24  26  1   
 44  24  44  1   
 45  24  45  1   
 46  25  46  1   
 47  25  47  1   
 48  25  48  1   
 49  26  27  1   
 50  26  49  1   
 51  26  50  1   
 52  27  28  1   
 53  27  51  1   
 54  27  52  1   
 55  28  29  1   
 56  29  53  1   
 57  29  54  1   
 58  29  55  1   
@<TRIPOS>SUBSTRUCTURE
  1 ****  10 GROUP 4 **** **** 0

# MOE 2024.06 (io_trps.svl 2023.06)
