@<TRIPOS>MOLECULE
6-(2-Ethoxy-phenoxymethyl)-3-ethyl-[1,2,4]triazolo[3,4-b][1,3,4]thiadiazole
37 39 1 0 0 
SMALL
USER_CHARGES


@<TRIPOS>ATOM
  1 S       -0.2130    -0.1290    -0.0040 S.3   1 <1>  -0.1970 
  2 C        0.5570     1.4440    -0.0040 C.2   1 <1>   0.2420 
  3 C       -1.7890     0.6950     0.0030 C.2   1 <1>   0.5300 
  4 N        1.7630     1.8870    -0.0070 N.2   1 <1>  -0.3380 
  5 N       -0.3800     2.3740     0.0020 N.pl3 1 <1>   0.5050 
  6 N       -1.7150     1.9670     0.0050 N.2   1 <1>  -0.6520 
  7 C       -2.9930    -0.2380     0.0050 C.3   1 <1>   0.1810 
  8 N        1.6260     3.2280    -0.0040 N.2   1 <1>  -0.3380 
  9 C        0.3530     3.4990     0.0010 C.2   1 <1>   0.0060 
 10 O       -4.2050     0.4900     0.0080 O.3   1 <1>  -0.3630 
 11 C       -0.2960     4.8770     0.0060 C.3   1 <1>   0.0200 
 12 C       -5.4190    -0.1320     0.0090 C.ar  1 <1>   0.0830 
 13 C        0.7240     6.0220     0.0050 C.3   1 <1>  -0.2400 
 14 C       -6.5630     0.6710     0.0080 C.ar  1 <1>   0.0830 
 15 C       -5.5520    -1.5190     0.0110 C.ar  1 <1>  -0.1500 
 16 O       -6.3930     2.0250     0.0060 O.3   1 <1>  -0.3630 
 17 C       -7.8210     0.0740     0.0090 C.ar  1 <1>  -0.1500 
 18 C       -6.8080    -2.0990     0.0120 C.ar  1 <1>  -0.1500 
 19 C       -7.4860     2.9110     0.0050 C.3   1 <1>   0.1200 
 20 C       -7.9400    -1.3050     0.0110 C.ar  1 <1>  -0.1500 
 21 C       -6.9350     4.3340     0.0030 C.3   1 <1>  -0.2400 
 22 H       -2.9710    -0.8510     0.8870 H     1 <1>   0.0800 
 23 H       -2.9740    -0.8510    -0.8760 H     1 <1>   0.0800 
 24 H       -0.9210     4.9620     0.8780 H     1 <1>   0.0800 
 25 H       -0.9270     4.9650    -0.8610 H     1 <1>   0.0800 
 26 H        1.3520     5.9600     0.8760 H     1 <1>   0.0800 
 27 H        0.2180     6.9710     0.0090 H     1 <1>   0.0800 
 28 H        1.3460     5.9640    -0.8710 H     1 <1>   0.0800 
 29 H       -4.6980    -2.1680     0.0110 H     1 <1>   0.1500 
 30 H       -8.7190     0.6600     0.0080 H     1 <1>   0.1500 
 31 H       -6.9070    -3.1710     0.0130 H     1 <1>   0.1500 
 32 H       -8.0720     2.7320     0.8900 H     1 <1>   0.0800 
 33 H       -8.0720     2.7290    -0.8790 H     1 <1>   0.0800 
 34 H       -8.9150    -1.7600     0.0110 H     1 <1>   0.1500 
 35 H       -6.3360     4.4970     0.8800 H     1 <1>   0.0800 
 36 H       -7.7460     5.0400     0.0020 H     1 <1>   0.0800 
 37 H       -6.3360     4.4950    -0.8760 H     1 <1>   0.0800 
@<TRIPOS>BOND
  1   1   2  1   
  2   1   3  1   
  3   2   4  2   
  4   2   5  1   
  5   3   6  2   
  6   3   7  1   
  7   4   8  1   
  8   5   6  1   
  9   5   9  1   
 10   7  10  1   
 11   7  22  1   
 12   7  23  1   
 13   8   9  2   
 14   9  11  1   
 15  10  12  1   
 16  11  13  1   
 17  11  24  1   
 18  11  25  1   
 19  12  14  ar  
 20  12  15  ar  
 21  13  26  1   
 22  13  27  1   
 23  13  28  1   
 24  14  16  1   
 25  14  17  ar  
 26  15  18  ar  
 27  15  29  1   
 28  16  19  1   
 29  17  20  ar  
 30  17  30  1   
 31  18  20  ar  
 32  18  31  1   
 33  19  21  1   
 34  19  32  1   
 35  19  33  1   
 36  20  34  1   
 37  21  35  1   
 38  21  36  1   
 39  21  37  1   
@<TRIPOS>SUBSTRUCTURE
  1 ****  10 GROUP 4 **** **** 0

# MOE 2024.06 (io_trps.svl 2023.06)
