@<TRIPOS>MOLECULE
4-(2,5-Dimethyl-phenoxy)-N-[5-(tetrahydro-furan-2-yl)-[1,3,4]thiadiazol-2-yl]-bu
48 50 1 0 0 
SMALL
USER_CHARGES


@<TRIPOS>ATOM
  1 S       -0.1000    -0.6160    -0.1090 S.3   1 <1>  -0.0800 
  2 C        0.9870     0.6730    -0.5250 C.2   1 <1>   0.4420 
  3 C        1.1730    -1.7220    -0.5060 C.2   1 <1>   0.1980 
  4 N        2.1360     0.2350    -0.8860 N.2   1 <1>  -0.3380 
  5 N        0.6250     2.0010    -0.4370 N.am  1 <1>  -0.4940 
  6 N        2.2350    -1.1280    -0.8780 N.2   1 <1>  -0.3380 
  7 C        0.9200    -3.2200    -0.3700 C.3   1 <1>   0.3800 
  8 C       -0.5310     2.6930    -0.2540 C.2   1 <1>   0.5690 
  9 O       -0.3570    -3.5650    -0.8140 O.3   1 <1>  -0.5600 
 10 C        0.9630    -3.7270     1.0650 C.3   1 <1>  -0.1600 
 11 O       -0.4620     3.8880    -0.1310 O.2   1 <1>  -0.5700 
 12 C       -1.8940     2.0100    -0.2190 C.3   1 <1>  -0.0990 
 13 C       -0.7370    -4.7890    -0.2690 C.3   1 <1>   0.1200 
 14 C        0.0440    -4.9400     1.0350 C.3   1 <1>  -0.1600 
 15 C       -3.0910     2.9780    -0.2940 C.3   1 <1>  -0.1600 
 16 C       -4.4190     2.2210    -0.2840 C.3   1 <1>   0.1200 
 17 O       -5.4630     3.1630    -0.3540 O.3   1 <1>  -0.3630 
 18 C       -6.7690     2.7830    -0.3650 C.ar  1 <1>   0.0830 
 19 C       -7.7300     3.7880    -0.4260 C.ar  1 <1>  -0.1430 
 20 C       -7.1700     1.4490    -0.3170 C.ar  1 <1>  -0.1500 
 21 C       -9.0730     3.4490    -0.4380 C.ar  1 <1>  -0.1500 
 22 C       -7.3180     5.2520    -0.4790 C.3   1 <1>  -0.0970 
 23 C       -8.5150     1.1160    -0.3320 C.ar  1 <1>  -0.1430 
 24 C       -9.4630     2.1220    -0.3910 C.ar  1 <1>  -0.1500 
 25 C       -8.9510    -0.3370    -0.2780 C.3   1 <1>  -0.0970 
 26 H        1.4180     2.6310    -0.5450 H     1 <1>   0.3700 
 27 H        1.6270    -3.7610    -0.9750 H     1 <1>   0.0800 
 28 H        0.5670    -2.9780     1.7280 H     1 <1>   0.0800 
 29 H        1.9660    -3.9710     1.3660 H     1 <1>   0.0800 
 30 H       -1.9640     1.4450     0.6920 H     1 <1>   0.0800 
 31 H       -1.9540     1.3340    -1.0520 H     1 <1>   0.0800 
 32 H       -0.4810    -5.5640    -0.9720 H     1 <1>   0.0800 
 33 H       -1.8010    -4.7760    -0.1080 H     1 <1>   0.0800 
 34 H       -0.6180    -4.9550     1.8830 H     1 <1>   0.0800 
 35 H        0.6070    -5.8570     1.0170 H     1 <1>   0.0800 
 36 H       -3.0230     3.5610    -1.1970 H     1 <1>   0.0800 
 37 H       -3.0610     3.6490     0.5480 H     1 <1>   0.0800 
 38 H       -4.5330     1.6600     0.6270 H     1 <1>   0.0800 
 39 H       -4.4940     1.5710    -1.1380 H     1 <1>   0.0800 
 40 H       -6.4490     0.6580    -0.2680 H     1 <1>   0.1500 
 41 H       -9.8250     4.2160    -0.4840 H     1 <1>   0.1500 
 42 H       -6.7140     5.4270    -1.3500 H     1 <1>   0.0800 
 43 H       -6.7420     5.4980     0.3950 H     1 <1>   0.0800 
 44 H       -8.1760     5.8980    -0.5190 H     1 <1>   0.0800 
 45 H      -10.5110     1.8780    -0.4000 H     1 <1>   0.1500 
 46 H       -8.1810    -0.9800    -0.6650 H     1 <1>   0.0800 
 47 H       -9.8390    -0.4820    -0.8670 H     1 <1>   0.0800 
 48 H       -9.1590    -0.6170     0.7390 H     1 <1>   0.0800 
@<TRIPOS>BOND
  1   1   2  1   
  2   1   3  1   
  3   2   4  2   
  4   2   5  1   
  5   3   6  2   
  6   3   7  1   
  7   4   6  1   
  8   5   8  am  
  9   5  26  1   
 10   7   9  1   
 11   7  10  1   
 12   7  27  1   
 13   8  11  2   
 14   8  12  1   
 15   9  13  1   
 16  10  14  1   
 17  10  28  1   
 18  10  29  1   
 19  12  15  1   
 20  12  30  1   
 21  12  31  1   
 22  13  14  1   
 23  13  32  1   
 24  13  33  1   
 25  14  34  1   
 26  14  35  1   
 27  15  16  1   
 28  15  36  1   
 29  15  37  1   
 30  16  17  1   
 31  16  38  1   
 32  16  39  1   
 33  17  18  1   
 34  18  19  ar  
 35  18  20  ar  
 36  19  21  ar  
 37  19  22  1   
 38  20  23  ar  
 39  20  40  1   
 40  21  24  ar  
 41  21  41  1   
 42  22  42  1   
 43  22  43  1   
 44  22  44  1   
 45  23  24  ar  
 46  23  25  1   
 47  24  45  1   
 48  25  46  1   
 49  25  47  1   
 50  25  48  1   
@<TRIPOS>SUBSTRUCTURE
  1 ****  12 GROUP 4 **** **** 0

# MOE 2024.06 (io_trps.svl 2023.06)
