@<TRIPOS>MOLECULE
2-tert-Butyl-7,8,9,10-tetrahydro-6-thia-1,3,3a,5-tetraaza-cyclopenta[c]fluorene
39 42 1 0 0 
SMALL
USER_CHARGES


@<TRIPOS>ATOM
  1 S       -0.0300    -0.5900    -0.4330 S.3   1 <1>  -0.0800 
  2 C        1.4770     0.2910    -0.2970 C.2   1 <1>   0.1660 
  3 C       -0.9490     0.9040    -0.3290 C.2   1 <1>  -0.1400 
  4 N        2.6780    -0.3250    -0.3130 N.2   1 <1>  -0.5760 
  5 C        1.2540     1.6370    -0.1800 C.2   1 <1>  -0.0370 
  6 C       -0.1490     1.9730    -0.1890 C.2   1 <1>  -0.1810 
  7 C       -2.4610     0.8650    -0.3970 C.3   1 <1>   0.0200 
  8 C        3.7080     0.4480    -0.2100 C.2   1 <1>   0.8090 
  9 C        2.4220     2.4100    -0.0780 C.cat 1 <1>   0.8370 
 10 C       -0.7290     3.3760    -0.0630 C.3   1 <1>   0.0210 
 11 C       -2.9910     2.2950    -0.6070 C.3   1 <1>  -0.1600 
 12 N        3.6190     1.8200    -0.0910 N.pl3 1 <1>  -0.3620 
 13 N        2.6450     3.7140     0.0350 N.pl3 1 <1>  -0.7000 
 14 C       -2.2370     3.3230     0.2600 C.3   1 <1>  -0.1600 
 15 N        4.6120     2.7560     0.0170 N.2   1 <1>  -0.2600 
 16 C        3.9940     3.8840     0.0910 C.2   1 <1>   0.4850 
 17 C        4.6490     5.2790     0.2260 C.3   1 <1>   0.1680 
 18 C        6.1860     5.1810     0.2720 C.3   1 <1>  -0.2400 
 19 C        4.1720     5.9610     1.5210 C.3   1 <1>  -0.2400 
 20 C        4.2590     6.1620    -0.9730 C.3   1 <1>  -0.2400 
 21 H       -2.8410     0.4600     0.5240 H     1 <1>   0.0800 
 22 H       -2.7810     0.2330    -1.2070 H     1 <1>   0.0800 
 23 H        4.6980     0.0260    -0.2150 H     1 <1>   0.0600 
 24 H       -0.5850     3.8990    -0.9930 H     1 <1>   0.0800 
 25 H       -0.2330     3.9180     0.7210 H     1 <1>   0.0800 
 26 H       -4.0420     2.3220    -0.3790 H     1 <1>   0.0800 
 27 H       -2.8740     2.5610    -1.6440 H     1 <1>   0.0800 
 28 H        1.9430     4.4500     0.0680 H     1 <1>   0.4500 
 29 H       -2.6680     4.3000     0.1200 H     1 <1>   0.0800 
 30 H       -2.3640     3.0570     1.2960 H     1 <1>   0.0800 
 31 H        6.5060     4.5890     1.1110 H     1 <1>   0.0800 
 32 H        6.6280     6.1580     0.3660 H     1 <1>   0.0800 
 33 H        6.5670     4.7290    -0.6270 H     1 <1>   0.0800 
 34 H        4.4290     5.3630     2.3780 H     1 <1>   0.0800 
 35 H        3.1080     6.1100     1.5160 H     1 <1>   0.0800 
 36 H        4.6410     6.9240     1.6340 H     1 <1>   0.0800 
 37 H        4.5780     5.7070    -1.8950 H     1 <1>   0.0800 
 38 H        4.7290     7.1280    -0.8980 H     1 <1>   0.0800 
 39 H        3.1960     6.3130    -1.0180 H     1 <1>   0.0800 
@<TRIPOS>BOND
  1   1   2  1   
  2   1   3  1   
  3   2   4  1   
  4   2   5  2   
  5   3   6  2   
  6   3   7  1   
  7   4   8  2   
  8   5   6  1   
  9   5   9  1   
 10   6  10  1   
 11   7  11  1   
 12   7  21  1   
 13   7  22  1   
 14   8  12  1   
 15   8  23  1   
 16   9  12  ar  
 17   9  13  ar  
 18  10  14  1   
 19  10  24  1   
 20  10  25  1   
 21  11  14  1   
 22  11  26  1   
 23  11  27  1   
 24  12  15  1   
 25  13  16  1   
 26  13  28  1   
 27  14  29  1   
 28  14  30  1   
 29  15  16  2   
 30  16  17  1   
 31  17  18  1   
 32  17  19  1   
 33  17  20  1   
 34  18  31  1   
 35  18  32  1   
 36  18  33  1   
 37  19  34  1   
 38  19  35  1   
 39  19  36  1   
 40  20  37  1   
 41  20  38  1   
 42  20  39  1   
@<TRIPOS>SUBSTRUCTURE
  1 ****   9 GROUP 4 **** **** 0

# MOE 2024.06 (io_trps.svl 2023.06)
