@<TRIPOS>MOLECULE
N-(3-Fluoro-phenyl)-2-(4-methyl-5-morpholin-4-ylmethyl-4H-[1,2,4]triazol-3-ylsul
45 47 1 0 0 
SMALL
USER_CHARGES


@<TRIPOS>ATOM
  1 S        0.3180    -0.3030    -1.0500 S.3   1 <1>  -0.2860 
  2 C       -0.8890     0.2260     0.1630 C.2   1 <1>   0.2420 
  3 C        1.8330     0.6390    -0.5280 C.3   1 <1>   0.1310 
  4 N       -0.5760     0.5580     1.3640 N.2   1 <1>  -0.3380 
  5 N       -2.1740     0.4070    -0.1300 N.pl3 1 <1>   0.0480 
  6 C        1.6300     2.1320    -0.7610 C.2   1 <1>   0.5690 
  7 N       -1.6960     1.0350     1.9060 N.2   1 <1>  -0.3380 
  8 C       -2.6260     0.9600     1.0080 C.2   1 <1>   0.0060 
  9 C       -2.8440     0.1230    -1.4160 C.3   1 <1>   0.0160 
 10 O        2.2340     2.6450    -1.6710 O.2   1 <1>  -0.5700 
 11 N        0.7760     2.8190     0.0650 N.am  1 <1>  -0.5470 
 12 C       -4.0480     1.4630     1.2260 C.3   1 <1>   0.2900 
 13 C        0.3530     4.1560     0.1030 C.ar  1 <1>   0.1170 
 14 N       -4.1900     2.8910     0.8740 N.3   1 <1>  -0.8100 
 15 C       -0.7210     4.4810     0.9250 C.ar  1 <1>  -0.1500 
 16 C        0.9580     5.1780    -0.6310 C.ar  1 <1>  -0.1500 
 17 C       -5.4940     3.4180     1.3230 C.3   1 <1>   0.1100 
 18 C       -3.9820     3.1840    -0.5600 C.3   1 <1>   0.1100 
 19 C       -1.1490     5.7910     0.9950 C.ar  1 <1>   0.1900 
 20 C        0.5100     6.4880    -0.5530 C.ar  1 <1>  -0.1500 
 21 C       -5.6650     4.8970     0.9360 C.3   1 <1>   0.1200 
 22 C       -4.2340     4.6680    -0.8830 C.3   1 <1>   0.1200 
 23 F       -2.1530     6.0870     1.7760 F     1 <1>  -0.1900 
 24 C       -0.5570     6.8060     0.2690 C.ar  1 <1>  -0.1500 
 25 O       -5.5020     5.0560    -0.4430 O.3   1 <1>  -0.5600 
 26 H        2.6500     0.2750    -1.1230 H     1 <1>   0.0800 
 27 H        2.0100     0.4270     0.5100 H     1 <1>   0.0800 
 28 H       -2.5190     0.8370    -2.1500 H     1 <1>   0.0800 
 29 H       -3.9100     0.1820    -1.3020 H     1 <1>   0.0800 
 30 H       -2.5790    -0.8670    -1.7430 H     1 <1>   0.0800 
 31 H        0.2950     2.2260     0.7570 H     1 <1>   0.3700 
 32 H       -4.2760     1.3430     2.2720 H     1 <1>   0.0800 
 33 H       -4.7500     0.8710     0.6670 H     1 <1>   0.0800 
 34 H       -1.2250     3.7280     1.5060 H     1 <1>   0.1500 
 35 H        1.7930     4.9590    -1.2700 H     1 <1>   0.1500 
 36 H       -5.5660     3.3290     2.3930 H     1 <1>   0.0800 
 37 H       -6.2950     2.8510     0.8810 H     1 <1>   0.0800 
 38 H       -4.6450     2.5860    -1.1590 H     1 <1>   0.0800 
 39 H       -2.9670     2.9540    -0.8300 H     1 <1>   0.0800 
 40 H        0.9940     7.2560    -1.1320 H     1 <1>   0.1500 
 41 H       -4.9390     5.5080     1.4450 H     1 <1>   0.0800 
 42 H       -6.6510     5.2410     1.1930 H     1 <1>   0.0800 
 43 H       -4.1890     4.8330    -1.9440 H     1 <1>   0.0800 
 44 H       -3.4980     5.2910    -0.4060 H     1 <1>   0.0800 
 45 H       -0.9220     7.8140     0.3500 H     1 <1>   0.1500 
@<TRIPOS>BOND
  1   1   2  1   
  2   1   3  1   
  3   2   4  2   
  4   2   5  1   
  5   3   6  1   
  6   3  26  1   
  7   3  27  1   
  8   4   7  1   
  9   5   8  1   
 10   5   9  1   
 11   6  10  2   
 12   6  11  am  
 13   7   8  2   
 14   8  12  1   
 15   9  28  1   
 16   9  29  1   
 17   9  30  1   
 18  11  13  1   
 19  11  31  1   
 20  12  14  1   
 21  12  32  1   
 22  12  33  1   
 23  13  15  ar  
 24  13  16  ar  
 25  14  17  1   
 26  14  18  1   
 27  15  19  ar  
 28  15  34  1   
 29  16  20  ar  
 30  16  35  1   
 31  17  21  1   
 32  17  36  1   
 33  17  37  1   
 34  18  22  1   
 35  18  38  1   
 36  18  39  1   
 37  19  23  1   
 38  19  24  ar  
 39  20  24  ar  
 40  20  40  1   
 41  21  25  1   
 42  21  41  1   
 43  21  42  1   
 44  22  25  1   
 45  22  43  1   
 46  22  44  1   
 47  24  45  1   
@<TRIPOS>SUBSTRUCTURE
  1 ****  15 GROUP 4 **** **** 0

# MOE 2024.06 (io_trps.svl 2023.06)
