@<TRIPOS>MOLECULE
2-tert-Butyl-pyrimidine-5-carboxylic acid
24 24 1 0 0 
SMALL
USER_CHARGES


@<TRIPOS>ATOM
  1 O        0.3930     0.2240    -0.8050 O.co2 1 <1>  -0.9000 
  2 C        1.4980     0.7200    -1.0800 C.2   1 <1>   0.9790 
  3 O        1.5450     1.8300    -1.6350 O.co2 1 <1>  -0.9000 
  4 C        2.7090     0.0160    -0.7590 C.ar  1 <1>  -0.1790 
  5 C        2.6980    -1.2150    -0.1450 C.ar  1 <1>   0.1600 
  6 C        3.9520     0.5330    -1.0480 C.ar  1 <1>   0.1600 
  7 N        3.7980    -1.8740     0.1560 N.ar  1 <1>  -0.6200 
  8 N        5.0720    -0.0970    -0.7620 N.ar  1 <1>  -0.6200 
  9 C        4.9420    -1.2800    -0.1690 C.ar  1 <1>   0.4770 
 10 C        6.2670    -2.0260     0.1700 C.3   1 <1>   0.1440 
 11 C        7.1280    -1.1710     1.1200 C.3   1 <1>  -0.2400 
 12 C        7.0710    -2.2890    -1.1190 C.3   1 <1>  -0.2400 
 13 C        6.0390    -3.3910     0.8570 C.3   1 <1>  -0.2400 
 14 H        1.7480    -1.6620     0.1010 H     1 <1>   0.1500 
 15 H        4.0120     1.4960    -1.5290 H     1 <1>   0.1500 
 16 H        8.0410    -1.6770     1.3740 H     1 <1>   0.0800 
 17 H        6.5810    -0.9650     2.0230 H     1 <1>   0.0800 
 18 H        7.3760    -0.2320     0.6570 H     1 <1>   0.0800 
 19 H        7.3180    -1.3600    -1.6020 H     1 <1>   0.0800 
 20 H        6.4830    -2.8750    -1.8020 H     1 <1>   0.0800 
 21 H        7.9830    -2.8150    -0.9040 H     1 <1>   0.0800 
 22 H        5.5000    -3.2570     1.7790 H     1 <1>   0.0800 
 23 H        6.9740    -3.8740     1.0750 H     1 <1>   0.0800 
 24 H        5.4610    -4.0360     0.2200 H     1 <1>   0.0800 
@<TRIPOS>BOND
  1   1   2  ar  
  2   2   3  ar  
  3   2   4  1   
  4   4   5  ar  
  5   4   6  ar  
  6   5   7  ar  
  7   5  14  1   
  8   6   8  ar  
  9   6  15  1   
 10   7   9  ar  
 11   8   9  ar  
 12   9  10  1   
 13  10  11  1   
 14  10  12  1   
 15  10  13  1   
 16  11  16  1   
 17  11  17  1   
 18  11  18  1   
 19  12  19  1   
 20  12  20  1   
 21  12  21  1   
 22  13  22  1   
 23  13  23  1   
 24  13  24  1   
@<TRIPOS>SUBSTRUCTURE
  1 ****   9 GROUP 4 **** **** 0

# MOE 2024.06 (io_trps.svl 2023.06)
