@<TRIPOS>MOLECULE
1-Acetyl-5-(4-ethyl-phenyl)-4,6-dioxo-1,3a,4,5,6,6a-hexahydro-pyrrolo[3,4-c]pyra
42 44 1 0 0 
SMALL
USER_CHARGES


@<TRIPOS>ATOM
  1 O        0.0460    -0.3270     0.5400 O.2   1 <1>  -0.5700 
  2 C        0.0590    -1.4970     0.2590 C.2   1 <1>   0.5690 
  3 N        1.1520    -2.3440     0.2630 N.am  1 <1>  -0.2370 
  4 C       -1.1330    -2.3490    -0.1330 C.3   1 <1>   0.2810 
  5 C        2.5150    -1.9590     0.2640 C.ar  1 <1>   0.1170 
  6 C        0.6720    -3.6400     0.2420 C.2   1 <1>   0.5690 
  7 N       -2.5820    -2.3280     0.0970 N.am  1 <1>  -0.2980 
  8 C       -0.7760    -3.5960     0.6200 C.3   1 <1>   0.0420 
  9 C        3.4790    -2.7420     0.8920 C.ar  1 <1>  -0.1500 
 10 C        2.9310    -0.7890    -0.3660 C.ar  1 <1>  -0.1500 
 11 O        1.2610    -4.6380    -0.0740 O.2   1 <1>  -0.5700 
 12 N       -3.0120    -3.6350     0.1630 N.2   1 <1>  -0.5120 
 13 C       -3.3420    -1.1920    -0.1160 C.2   1 <1>   0.5690 
 14 C       -2.0060    -4.4260     0.3580 C.2   1 <1>   0.3890 
 15 C        4.8110    -2.3700     0.8920 C.ar  1 <1>  -0.1500 
 16 C        4.2630    -0.4150    -0.3660 C.ar  1 <1>  -0.1500 
 17 O       -2.8600    -0.1640    -0.5150 O.2   1 <1>  -0.5700 
 18 C       -4.8310    -1.2550     0.1270 C.3   1 <1>  -0.1790 
 19 C       -1.9320    -5.8640     0.4680 C.2   1 <1>   0.7200 
 20 C        5.2120    -1.2030     0.2640 C.ar  1 <1>  -0.1440 
 21 O       -0.9930    -6.4120     1.0070 O.2   1 <1>  -0.5700 
 22 O       -2.8910    -6.6880     0.0110 O.3   1 <1>  -0.4300 
 23 C        6.6760    -0.7930     0.2620 C.3   1 <1>  -0.0170 
 24 C       -4.0560    -6.2900    -0.6830 C.3   1 <1>   0.0400 
 25 C        7.3950    -1.3760    -0.9560 C.3   1 <1>  -0.2400 
 26 H       -1.0220    -2.5170    -1.1920 H     1 <1>   0.0800 
 27 H       -0.7910    -3.3970     1.6790 H     1 <1>   0.0800 
 28 H        3.1970    -3.6550     1.3860 H     1 <1>   0.1500 
 29 H        2.2160    -0.1560    -0.8600 H     1 <1>   0.1500 
 30 H        5.5370    -2.9950     1.3820 H     1 <1>   0.1500 
 31 H        4.5580     0.4940    -0.8600 H     1 <1>   0.1500 
 32 H       -5.0230    -1.6500     1.1060 H     1 <1>   0.0800 
 33 H       -5.2890    -1.8890    -0.6090 H     1 <1>   0.0800 
 34 H       -5.2550    -0.2700     0.0550 H     1 <1>   0.0800 
 35 H        7.1520    -1.1410     1.1630 H     1 <1>   0.0800 
 36 H        6.7530     0.2800     0.2470 H     1 <1>   0.0800 
 37 H       -4.5780    -7.1770    -0.9960 H     1 <1>   0.0800 
 38 H       -3.7770    -5.7090    -1.5460 H     1 <1>   0.0800 
 39 H       -4.6820    -5.7160    -0.0230 H     1 <1>   0.0800 
 40 H        7.3380    -2.4510    -0.9410 H     1 <1>   0.0800 
 41 H        8.4300    -1.0840    -0.9520 H     1 <1>   0.0800 
 42 H        6.9380    -1.0200    -1.8620 H     1 <1>   0.0800 
@<TRIPOS>BOND
  1   1   2  2   
  2   2   3  am  
  3   2   4  1   
  4   3   5  1   
  5   3   6  am  
  6   4   7  1   
  7   4   8  1   
  8   4  26  1   
  9   5   9  ar  
 10   5  10  ar  
 11   6   8  1   
 12   6  11  2   
 13   7  12  1   
 14   7  13  am  
 15   8  14  1   
 16   8  27  1   
 17   9  15  ar  
 18   9  28  1   
 19  10  16  ar  
 20  10  29  1   
 21  12  14  2   
 22  13  17  2   
 23  13  18  1   
 24  14  19  1   
 25  15  20  ar  
 26  15  30  1   
 27  16  20  ar  
 28  16  31  1   
 29  18  32  1   
 30  18  33  1   
 31  18  34  1   
 32  19  21  2   
 33  19  22  1   
 34  20  23  1   
 35  22  24  1   
 36  23  25  1   
 37  23  35  1   
 38  23  36  1   
 39  24  37  1   
 40  24  38  1   
 41  24  39  1   
 42  25  40  1   
 43  25  41  1   
 44  25  42  1   
@<TRIPOS>SUBSTRUCTURE
  1 ****   3 GROUP 4 **** **** 0

# MOE 2024.06 (io_trps.svl 2023.06)
