@<TRIPOS>MOLECULE
3,6-Dihydroxy-4-(4-hydroxy-3-methoxy-phenyl)-6-methyl-4,5,6,7-tetrahydro-1H-inda
49 51 1 0 0 
SMALL
USER_CHARGES


@<TRIPOS>ATOM
  1 O       -0.8010     0.9930     0.9000 O.2   1 <1>  -0.5700 
  2 C        0.0810     1.5060     0.2570 C.2   1 <1>   0.6590 
  3 O        0.0920     1.4900    -1.0700 O.3   1 <1>  -0.4300 
  4 C        1.2310     2.2000     0.9570 C.3   1 <1>  -0.0190 
  5 C       -0.9730     0.9590    -1.8190 C.3   1 <1>   0.2580 
  6 C        1.0290     3.7350     1.0730 C.3   1 <1>   0.2800 
  7 C        2.5800     1.8300     0.3030 C.3   1 <1>   0.2440 
  8 C       -1.9800     2.0700    -2.0450 C.2   1 <1>  -0.2880 
  9 O        1.1190     4.2790    -0.1930 O.3   1 <1>  -0.6800 
 10 C        2.1370     4.3750     1.9540 C.3   1 <1>   0.0200 
 11 C       -0.3560     4.1290     1.6000 C.3   1 <1>  -0.2400 
 12 C        2.8490     0.3270     0.3780 C.ar  1 <1>  -0.1440 
 13 C        3.6900     2.6180     0.9740 C.2   1 <1>  -0.1810 
 14 C       -3.2430     2.0660    -1.6070 C.2   1 <1>  -0.3000 
 15 C        3.4940     3.7420     1.6880 C.2   1 <1>  -0.3320 
 16 C        2.7630    -0.4480    -0.7690 C.ar  1 <1>  -0.1500 
 17 C        3.1840    -0.2840     1.5770 C.ar  1 <1>  -0.1500 
 18 C        5.0660     2.4260     1.0130 C.2   1 <1>   0.3510 
 19 N        4.7100     4.1600     2.1070 N.pl3 1 <1>   0.3000 
 20 C        3.0030    -1.8130    -0.7470 C.ar  1 <1>   0.0830 
 21 C        3.4310    -1.6440     1.6230 C.ar  1 <1>  -0.1500 
 22 O        5.7080     1.3950     0.4410 O.3   1 <1>  -0.5120 
 23 N        5.6920     3.3320     1.6880 N.2   1 <1>  -0.7070 
 24 O        2.8700    -2.4220    -1.9610 O.3   1 <1>  -0.3630 
 25 C        3.3460    -2.4160     0.4750 C.ar  1 <1>   0.0830 
 26 C        2.9750    -3.8160    -2.1380 C.3   1 <1>   0.0400 
 27 O        3.6120    -3.7330     0.6130 O.3   1 <1>  -0.5330 
 28 H        1.2460     1.8150     1.9590 H     1 <1>   0.0800 
 29 H       -1.4060     0.1240    -1.2930 H     1 <1>   0.0800 
 30 H       -0.5770     0.6140    -2.7570 H     1 <1>   0.0800 
 31 H        2.5680     2.1340    -0.7300 H     1 <1>   0.0800 
 32 H       -1.5600     2.8890    -2.6030 H     1 <1>   0.1500 
 33 H        0.9170     5.2330    -0.1690 H     1 <1>   0.4000 
 34 H        1.8980     4.2130     2.9900 H     1 <1>   0.0800 
 35 H        2.1760     5.4370     1.7860 H     1 <1>   0.0800 
 36 H       -0.5370     3.6570     2.5490 H     1 <1>   0.0800 
 37 H       -1.1310     3.8160     0.9210 H     1 <1>   0.0800 
 38 H       -0.4260     5.1930     1.7360 H     1 <1>   0.0800 
 39 H       -3.9410     2.8680    -1.7760 H     1 <1>   0.1500 
 40 H       -3.6830     1.2640    -1.0380 H     1 <1>   0.1500 
 41 H        2.5020     0.0030    -1.7110 H     1 <1>   0.1500 
 42 H        3.2590     0.2970     2.4810 H     1 <1>   0.1500 
 43 H        4.9130     4.9930     2.6730 H     1 <1>   0.2700 
 44 H        3.6920    -2.0940     2.5640 H     1 <1>   0.1500 
 45 H        5.0610     0.7110     0.1950 H     1 <1>   0.4500 
 46 H        2.7760    -4.0400    -3.1700 H     1 <1>   0.0800 
 47 H        2.2510    -4.3030    -1.5100 H     1 <1>   0.0800 
 48 H        3.9740    -4.1240    -1.8830 H     1 <1>   0.0800 
 49 H        3.8380    -3.9770     1.5270 H     1 <1>   0.4500 
@<TRIPOS>BOND
  1   1   2  2   
  2   2   3  1   
  3   2   4  1   
  4   3   5  1   
  5   4   6  1   
  6   4   7  1   
  7   4  28  1   
  8   5   8  1   
  9   5  29  1   
 10   5  30  1   
 11   6   9  1   
 12   6  10  1   
 13   6  11  1   
 14   7  12  1   
 15   7  13  1   
 16   7  31  1   
 17   8  14  2   
 18   8  32  1   
 19   9  33  1   
 20  10  15  1   
 21  10  34  1   
 22  10  35  1   
 23  11  36  1   
 24  11  37  1   
 25  11  38  1   
 26  12  16  ar  
 27  12  17  ar  
 28  13  15  2   
 29  13  18  1   
 30  14  39  1   
 31  14  40  1   
 32  15  19  1   
 33  16  20  ar  
 34  16  41  1   
 35  17  21  ar  
 36  17  42  1   
 37  18  22  1   
 38  18  23  2   
 39  19  23  1   
 40  19  43  1   
 41  20  24  1   
 42  20  25  ar  
 43  21  25  ar  
 44  21  44  1   
 45  22  45  1   
 46  24  26  1   
 47  25  27  1   
 48  26  46  1   
 49  26  47  1   
 50  26  48  1   
 51  27  49  1   
@<TRIPOS>SUBSTRUCTURE
  1 ****   7 GROUP 4 **** **** 0

# MOE 2024.06 (io_trps.svl 2023.06)
