@<TRIPOS>MOLECULE
N-[3-(2-Chloro-phenyl)-[1,2,4]oxadiazol-5-ylmethyl]-2,2-dimethyl-propionamide
36 37 1 0 0 
SMALL
USER_CHARGES


@<TRIPOS>ATOM
  1 CL       0.5360    -0.9180    -2.4140 Cl    1 <1>  -0.1770 
  2 C        0.7750    -2.1460    -1.1910 C.ar  1 <1>   0.1770 
  3 C        1.7630    -1.9990    -0.2160 C.ar  1 <1>   0.0540 
  4 C       -0.0380    -3.2630    -1.2490 C.ar  1 <1>  -0.1500 
  5 C        2.6110    -0.8330    -0.1310 C.2   1 <1>   0.4620 
  6 C        1.9120    -3.0450     0.6960 C.ar  1 <1>  -0.1500 
  7 C        0.1250    -4.2800    -0.3260 C.ar  1 <1>  -0.1500 
  8 N        3.8950    -0.8540    -0.0920 N.2   1 <1>  -0.4100 
  9 N        2.1300     0.4090    -0.0460 N.2   1 <1>  -0.5650 
 10 C        1.1050    -4.1690     0.6460 C.ar  1 <1>  -0.1500 
 11 O        4.3080     0.3710    -0.0080 O.3   1 <1>  -0.0190 
 12 C        3.2080     1.0780     0.0150 C.2   1 <1>   0.2980 
 13 C        3.3140     2.5920     0.1170 C.3   1 <1>   0.3200 
 14 N        3.9370     3.1790    -1.0970 N.am  1 <1>  -0.7300 
 15 C        5.1180     3.8070    -1.3280 C.2   1 <1>   0.5690 
 16 O        5.3280     4.1390    -2.4690 O.2   1 <1>  -0.5700 
 17 C        6.1860     4.1200    -0.2350 C.3   1 <1>   0.0610 
 18 C        5.6420     5.1090     0.8160 C.3   1 <1>  -0.2400 
 19 C        7.4300     4.7910    -0.8630 C.3   1 <1>  -0.2400 
 20 C        6.6920     2.8400     0.4610 C.3   1 <1>  -0.2400 
 21 H       -0.7900    -3.3350    -2.0150 H     1 <1>   0.1500 
 22 H        2.6720    -2.9710     1.4550 H     1 <1>   0.1500 
 23 H       -0.5040    -5.1530    -0.3640 H     1 <1>   0.1500 
 24 H        1.2390    -4.9600     1.3640 H     1 <1>   0.1500 
 25 H        3.8640     2.8420     1.0010 H     1 <1>   0.0800 
 26 H        2.3240     2.9980     0.2240 H     1 <1>   0.0800 
 27 H        3.3950     3.0220    -1.9500 H     1 <1>   0.3700 
 28 H        4.8110     4.7040     1.3590 H     1 <1>   0.0800 
 29 H        5.3150     6.0130     0.3320 H     1 <1>   0.0800 
 30 H        6.4080     5.3650     1.5260 H     1 <1>   0.0800 
 31 H        7.1540     5.7080    -1.3540 H     1 <1>   0.0800 
 32 H        7.8720     4.1420    -1.6000 H     1 <1>   0.0800 
 33 H        8.1730     5.0150    -0.1190 H     1 <1>   0.0800 
 34 H        5.9330     2.3730     1.0560 H     1 <1>   0.0800 
 35 H        7.5190     3.0640     1.1120 H     1 <1>   0.0800 
 36 H        7.0260     2.1300    -0.2750 H     1 <1>   0.0800 
@<TRIPOS>BOND
  1   1   2  1   
  2   2   3  ar  
  3   2   4  ar  
  4   3   5  1   
  5   3   6  ar  
  6   4   7  ar  
  7   4  21  1   
  8   5   8  2   
  9   5   9  1   
 10   6  10  ar  
 11   6  22  1   
 12   7  10  ar  
 13   7  23  1   
 14   8  11  1   
 15   9  12  2   
 16  10  24  1   
 17  11  12  1   
 18  12  13  1   
 19  13  14  1   
 20  13  25  1   
 21  13  26  1   
 22  14  15  am  
 23  14  27  1   
 24  15  16  2   
 25  15  17  1   
 26  17  18  1   
 27  17  19  1   
 28  17  20  1   
 29  18  28  1   
 30  18  29  1   
 31  18  30  1   
 32  19  31  1   
 33  19  32  1   
 34  19  33  1   
 35  20  34  1   
 36  20  35  1   
 37  20  36  1   
@<TRIPOS>SUBSTRUCTURE
  1 ****  12 GROUP 4 **** **** 0

# MOE 2024.06 (io_trps.svl 2023.06)
