@<TRIPOS>MOLECULE
2-(6-Cyano-indol-1-yl)-N-cycloheptyl-acetamide
43 45 1 0 0 
SMALL
USER_CHARGES


@<TRIPOS>ATOM
  1 O        2.4520     2.3600     0.7680 O.2   1 <1>  -0.5700 
  2 C        1.5130     2.1600     0.0360 C.2   1 <1>   0.5690 
  3 N        1.3700     0.9920    -0.6460 N.am  1 <1>  -0.7300 
  4 C        0.4660     3.2540    -0.0890 C.3   1 <1>   0.1570 
  5 C        2.2140    -0.2020    -0.4920 C.3   1 <1>   0.2200 
  6 N       -0.8520     2.7190    -0.5030 N.pl3 1 <1>   0.0480 
  7 C        2.5510    -0.7240    -1.8950 C.3   1 <1>  -0.1600 
  8 C        1.4470    -1.1870     0.4000 C.3   1 <1>  -0.1600 
  9 C       -1.5770     1.7370     0.1360 C.ar  1 <1>  -0.1520 
 10 C       -1.5130     3.0360    -1.6560 C.2   1 <1>  -0.3020 
 11 C        3.6670    -1.7790    -1.8750 C.3   1 <1>  -0.1600 
 12 C        2.1190    -2.5550     0.5980 C.3   1 <1>  -0.1600 
 13 C       -2.6960     1.4450    -0.6360 C.ar  1 <1>   0.0000 
 14 C       -1.3420     1.0510     1.3320 C.ar  1 <1>  -0.1500 
 15 C       -2.6350     2.2870    -1.7630 C.2   1 <1>  -0.1500 
 16 C        3.1870    -3.2240    -1.6640 C.3   1 <1>  -0.1600 
 17 C        2.0430    -3.4330    -0.6590 C.3   1 <1>  -0.1600 
 18 C       -3.5920     0.4600    -0.2120 C.ar  1 <1>  -0.1500 
 19 C       -2.2190     0.0690     1.7500 C.ar  1 <1>   0.0730 
 20 C       -3.3500    -0.2140     0.9620 C.ar  1 <1>  -0.1500 
 21 C       -1.9880    -0.6620     2.9620 C.1   1 <1>   0.4840 
 22 N       -1.8000    -1.2490     3.9220 N.1   1 <1>  -0.5570 
 23 H        0.5120     0.8370    -1.1830 H     1 <1>   0.3700 
 24 H        0.8000     3.9740    -0.8120 H     1 <1>   0.0800 
 25 H        0.3560     3.7440     0.8590 H     1 <1>   0.0800 
 26 H        3.1290     0.0780     0.0050 H     1 <1>   0.0800 
 27 H        2.9100     0.1100    -2.4730 H     1 <1>   0.0800 
 28 H        1.6740    -1.1120    -2.3800 H     1 <1>   0.0800 
 29 H        0.4580    -1.3370     0.0030 H     1 <1>   0.0800 
 30 H        1.3420    -0.7320     1.3690 H     1 <1>   0.0800 
 31 H       -1.1470     3.7820    -2.3410 H     1 <1>   0.1500 
 32 H        4.3840    -1.5260    -1.1120 H     1 <1>   0.0800 
 33 H        4.1920    -1.7430    -2.8140 H     1 <1>   0.0800 
 34 H        1.5910    -3.0630     1.3870 H     1 <1>   0.0800 
 35 H        3.1390    -2.4380     0.9230 H     1 <1>   0.0800 
 36 H       -0.4720     1.2870     1.9210 H     1 <1>   0.1500 
 37 H       -3.3700     2.2970    -2.5490 H     1 <1>   0.1500 
 38 H        4.0340    -3.8080    -1.3470 H     1 <1>   0.0800 
 39 H        2.8710    -3.6250    -2.6110 H     1 <1>   0.0800 
 40 H        1.1000    -3.2710    -1.1530 H     1 <1>   0.0800 
 41 H        2.0580    -4.4660    -0.3580 H     1 <1>   0.0800 
 42 H       -4.4560     0.2450    -0.8160 H     1 <1>   0.1500 
 43 H       -4.0350    -0.9770     1.2920 H     1 <1>   0.1500 
@<TRIPOS>BOND
  1   1   2  2   
  2   2   3  am  
  3   2   4  1   
  4   3   5  1   
  5   3  23  1   
  6   4   6  1   
  7   4  24  1   
  8   4  25  1   
  9   5   7  1   
 10   5   8  1   
 11   5  26  1   
 12   6   9  1   
 13   6  10  1   
 14   7  11  1   
 15   7  27  1   
 16   7  28  1   
 17   8  12  1   
 18   8  29  1   
 19   8  30  1   
 20   9  13  ar  
 21   9  14  ar  
 22  10  15  2   
 23  10  31  1   
 24  11  16  1   
 25  11  32  1   
 26  11  33  1   
 27  12  17  1   
 28  12  34  1   
 29  12  35  1   
 30  13  15  1   
 31  13  18  ar  
 32  14  19  ar  
 33  14  36  1   
 34  15  37  1   
 35  16  17  1   
 36  16  38  1   
 37  16  39  1   
 38  17  40  1   
 39  17  41  1   
 40  18  20  ar  
 41  18  42  1   
 42  19  20  ar  
 43  19  21  1   
 44  20  43  1   
 45  21  22  3   
@<TRIPOS>SUBSTRUCTURE
  1 ****   3 GROUP 4 **** **** 0

# MOE 2024.06 (io_trps.svl 2023.06)
