@<TRIPOS>MOLECULE
(2-Morpholin-4-yl-ethyl)-(6,7,8,9-tetrahydro-5H-10-thia-1,3-diaza-benzo[a]azulen
48 51 1 0 0 
SMALL
USER_CHARGES


@<TRIPOS>ATOM
  1 S       -0.0140    -0.1410    -1.4610 S.3   1 <1>  -0.0800 
  2 C        1.3430     0.9710    -1.4740 C.ar  1 <1>   0.2970 
  3 C       -0.9480     0.9310    -0.4210 C.2   1 <1>  -0.1400 
  4 N        2.4500     0.7130    -2.1340 N.ar  1 <1>  -0.5670 
  5 C        1.0740     2.0890    -0.7180 C.ar  1 <1>   0.0000 
  6 C       -0.2560     2.0510    -0.1280 C.2   1 <1>  -0.1810 
  7 C       -2.3230     0.4270    -0.0250 C.3   1 <1>   0.0200 
  8 C        3.3460     1.6630    -2.0080 C.ar  1 <1>   0.4700 
  9 C        2.1320     3.0080    -0.6720 C.ar  1 <1>   0.4100 
 10 C       -0.7740     3.1990     0.7370 C.3   1 <1>   0.0210 
 11 C       -3.4510     1.4100    -0.3720 C.3   1 <1>  -0.1600 
 12 N        3.2680     2.7970    -1.3190 N.ar  1 <1>  -0.6200 
 13 N        2.0570     4.1740     0.0530 N.pl3 1 <1>  -0.8690 
 14 C       -2.2480     3.1150     1.1670 C.3   1 <1>  -0.1600 
 15 C       -3.1970     2.8880    -0.0220 C.3   1 <1>  -0.1600 
 16 C        3.0120     5.3040    -0.0470 C.3   1 <1>   0.2090 
 17 C        4.3300     4.9490     0.6730 C.3   1 <1>   0.3430 
 18 N        5.5610     5.4200    -0.0490 N.4   1 <1>  -0.9590 
 19 C        5.7520     4.6460    -1.3290 C.3   1 <1>   0.3430 
 20 C        6.7790     5.2630     0.8200 C.3   1 <1>   0.3430 
 21 C        7.0880     4.9960    -2.0120 C.3   1 <1>   0.1200 
 22 C        8.0720     5.5920     0.0480 C.3   1 <1>   0.1200 
 23 O        8.1490     4.8250    -1.1180 O.3   1 <1>  -0.5600 
 24 H       -2.3210     0.2310     1.0320 H     1 <1>   0.0800 
 25 H       -2.5210    -0.5110    -0.5140 H     1 <1>   0.0800 
 26 H        4.2700     1.4930    -2.5360 H     1 <1>   0.1500 
 27 H       -0.6650     4.1090     0.1740 H     1 <1>   0.0800 
 28 H       -0.1630     3.2730     1.6200 H     1 <1>   0.0800 
 29 H       -4.3390     1.0810     0.1400 H     1 <1>   0.0800 
 30 H       -3.6530     1.3440    -1.4270 H     1 <1>   0.0800 
 31 H        1.1330     4.4080     0.4270 H     1 <1>   0.4000 
 32 H       -2.5050     4.0520     1.6310 H     1 <1>   0.0800 
 33 H       -2.3820     2.3550     1.9160 H     1 <1>   0.0800 
 34 H       -4.1470     3.3460     0.1960 H     1 <1>   0.0800 
 35 H       -2.8030     3.3920    -0.8890 H     1 <1>   0.0800 
 36 H        2.5760     6.1780     0.4060 H     1 <1>   0.0800 
 37 H        3.1830     5.5110    -1.0880 H     1 <1>   0.0800 
 38 H        4.3750     3.8760     0.7710 H     1 <1>   0.0800 
 39 H        4.3010     5.3700     1.6630 H     1 <1>   0.0800 
 40 H        5.4670     6.4150    -0.2860 H     1 <1>   0.4500 
 41 H        4.9400     4.8420    -2.0100 H     1 <1>   0.0800 
 42 H        5.7470     3.5900    -1.1160 H     1 <1>   0.0800 
 43 H        6.8460     4.2450     1.1710 H     1 <1>   0.0800 
 44 H        6.7050     5.9060     1.6820 H     1 <1>   0.0800 
 45 H        7.0920     6.0120    -2.3660 H     1 <1>   0.0800 
 46 H        7.2580     4.3410    -2.8490 H     1 <1>   0.0800 
 47 H        8.9320     5.3570     0.6510 H     1 <1>   0.0800 
 48 H        8.1150     6.6340    -0.2170 H     1 <1>   0.0800 
@<TRIPOS>BOND
  1   1   2  1   
  2   1   3  1   
  3   2   4  ar  
  4   2   5  ar  
  5   3   6  2   
  6   3   7  1   
  7   4   8  ar  
  8   5   6  1   
  9   5   9  ar  
 10   6  10  1   
 11   7  11  1   
 12   7  24  1   
 13   7  25  1   
 14   8  12  ar  
 15   8  26  1   
 16   9  12  ar  
 17   9  13  1   
 18  10  14  1   
 19  10  27  1   
 20  10  28  1   
 21  11  15  1   
 22  11  29  1   
 23  11  30  1   
 24  13  16  1   
 25  13  31  1   
 26  14  15  1   
 27  14  32  1   
 28  14  33  1   
 29  15  34  1   
 30  15  35  1   
 31  16  17  1   
 32  16  36  1   
 33  16  37  1   
 34  17  18  1   
 35  17  38  1   
 36  17  39  1   
 37  18  19  1   
 38  18  20  1   
 39  18  40  1   
 40  19  21  1   
 41  19  41  1   
 42  19  42  1   
 43  20  22  1   
 44  20  43  1   
 45  20  44  1   
 46  21  23  1   
 47  21  45  1   
 48  21  46  1   
 49  22  23  1   
 50  22  47  1   
 51  22  48  1   
@<TRIPOS>SUBSTRUCTURE
  1 ****   9 GROUP 4 **** **** 0

# MOE 2024.06 (io_trps.svl 2023.06)
