@<TRIPOS>MOLECULE
N-Bicyclo[2.2.1]hept-2-yl-2-(pyrimidin-2-ylsulfanyl)-acetamide
35 37 1 0 0 
SMALL
USER_CHARGES


@<TRIPOS>ATOM
  1 S        0.6490    -0.7420    -0.8540 S.3   1 <1>  -0.3320 
  2 C       -1.0850    -1.0760    -1.0980 C.ar  1 <1>   0.7220 
  3 C        1.0440    -1.5600     0.7720 C.3   1 <1>   0.1310 
  4 N       -1.5920    -0.5800    -2.2130 N.ar  1 <1>  -0.6200 
  5 N       -1.6770    -1.7800    -0.1440 N.ar  1 <1>  -0.6200 
  6 C        2.5050    -1.3860     1.1580 C.2   1 <1>   0.5690 
  7 C       -2.8700    -0.8300    -2.3880 C.ar  1 <1>   0.1600 
  8 C       -2.9550    -2.0090    -0.3540 C.ar  1 <1>   0.1600 
  9 O        2.8840    -1.8780     2.1930 O.2   1 <1>  -0.5700 
 10 N        3.3430    -0.6930     0.3450 N.am  1 <1>  -0.7300 
 11 C       -3.6060    -1.5490    -1.4750 C.ar  1 <1>  -0.1500 
 12 C        4.7810    -0.4440     0.5880 C.3   1 <1>   0.2200 
 13 C        5.1130     1.1590     0.6570 C.3   1 <1>  -0.0800 
 14 C        5.6820    -1.0910    -0.6580 C.3   1 <1>  -0.1600 
 15 C        5.9150     0.6240    -0.2730 C.3   1 <1>  -0.1600 
 16 C        6.1270     2.3240     0.1170 C.3   1 <1>  -0.1600 
 17 C        6.6890     0.0740    -1.2130 C.3   1 <1>  -0.0800 
 18 C        7.0350     1.6710    -1.1290 C.3   1 <1>  -0.1600 
 19 H        0.8110    -2.6040     0.6700 H     1 <1>   0.0800 
 20 H        0.4100    -1.1160     1.5160 H     1 <1>   0.0800 
 21 H       -3.3400    -0.4500    -3.2810 H     1 <1>   0.1500 
 22 H       -3.4940    -2.5770     0.3860 H     1 <1>   0.1500 
 23 H        2.9670    -0.3060    -0.5250 H     1 <1>   0.3700 
 24 H       -4.6500    -1.7450    -1.6330 H     1 <1>   0.1500 
 25 H        5.0710    -0.9090     1.5200 H     1 <1>   0.0800 
 26 H        4.1560     1.5950     0.4050 H     1 <1>   0.0800 
 27 H        5.0390    -1.4350    -1.4530 H     1 <1>   0.0800 
 28 H        6.2420    -1.9390    -0.2990 H     1 <1>   0.0800 
 29 H        5.1040     0.8720    -1.0920 H     1 <1>   0.0800 
 30 H        6.7180     0.3610     0.5470 H     1 <1>   0.0800 
 31 H        6.7740     2.6540     0.9170 H     1 <1>   0.0800 
 32 H        5.5760     3.1850    -0.2290 H     1 <1>   0.0800 
 33 H        7.6530    -0.3550    -0.9710 H     1 <1>   0.0800 
 34 H        8.0870     1.8320    -0.9520 H     1 <1>   0.0800 
 35 H        6.7870     2.1530    -2.0630 H     1 <1>   0.0800 
@<TRIPOS>BOND
  1   1   2  1   
  2   1   3  1   
  3   2   4  ar  
  4   2   5  ar  
  5   3   6  1   
  6   3  19  1   
  7   3  20  1   
  8   4   7  ar  
  9   5   8  ar  
 10   6   9  2   
 11   6  10  am  
 12   7  11  ar  
 13   7  21  1   
 14   8  11  ar  
 15   8  22  1   
 16  10  12  1   
 17  10  23  1   
 18  11  24  1   
 19  12  13  1   
 20  12  14  1   
 21  12  25  1   
 22  13  15  1   
 23  13  16  1   
 24  13  26  1   
 25  14  17  1   
 26  14  27  1   
 27  14  28  1   
 28  15  17  1   
 29  15  29  1   
 30  15  30  1   
 31  16  18  1   
 32  16  31  1   
 33  16  32  1   
 34  17  18  1   
 35  17  33  1   
 36  18  34  1   
 37  18  35  1   
@<TRIPOS>SUBSTRUCTURE
  1 ****  10 GROUP 4 **** **** 0

# MOE 2024.06 (io_trps.svl 2023.06)
