@<TRIPOS>MOLECULE
4-Chloro-N-isopropyl-3-(morpholine-4-sulfonyl)-benzamide
41 42 1 0 0 
SMALL
USER_CHARGES


@<TRIPOS>ATOM
  1 CL       0.6140     0.0670    -2.5640 Cl    1 <1>  -0.1770 
  2 C        1.7500    -0.8900    -1.6500 C.ar  1 <1>   0.1770 
  3 C        1.4370    -2.1520    -1.1590 C.ar  1 <1>  -0.0090 
  4 C        2.9860    -0.3120    -1.4230 C.ar  1 <1>  -0.1500 
  5 S       -0.1700    -2.9530    -1.4070 S.o2  1 <1>   1.4470 
  6 C        2.4150    -2.7980    -0.4120 C.ar  1 <1>  -0.1500 
  7 C        3.9380    -0.9860    -0.6840 C.ar  1 <1>  -0.1500 
  8 O        0.0290    -4.3820    -1.2920 O.2   1 <1>  -0.6500 
  9 O       -0.8800    -2.4630    -2.5650 O.2   1 <1>  -0.6500 
 10 N       -1.0510    -2.4820    -0.0380 N.am  1 <1>  -0.8490 
 11 C        3.6730    -2.2510    -0.1590 C.ar  1 <1>   0.0860 
 12 C       -1.5820    -1.1120    -0.1330 C.3   1 <1>   0.1960 
 13 C       -2.1600    -3.4120     0.2360 C.3   1 <1>   0.1960 
 14 C        4.6540    -2.9760     0.6280 C.2   1 <1>   0.5440 
 15 C       -2.3870    -0.7380     1.1250 C.3   1 <1>   0.1200 
 16 C       -2.9570    -2.9800     1.4810 C.3   1 <1>   0.1200 
 17 O        4.2970    -3.6980     1.5370 O.2   1 <1>  -0.5700 
 18 N        5.9870    -2.8650     0.3500 N.am  1 <1>  -0.7300 
 19 O       -3.4130    -1.6640     1.3440 O.3   1 <1>  -0.5600 
 20 C        7.0670    -3.5500     1.0690 C.3   1 <1>   0.2200 
 21 C        8.0760    -2.5010     1.5210 C.3   1 <1>  -0.2400 
 22 C        7.7020    -4.5610     0.1210 C.3   1 <1>  -0.2400 
 23 H        3.1950     0.6660    -1.8210 H     1 <1>   0.1500 
 24 H        2.1990    -3.7730    -0.0010 H     1 <1>   0.1500 
 25 H        4.8930    -0.5230    -0.5010 H     1 <1>   0.1500 
 26 H       -2.2210    -1.0150    -0.9960 H     1 <1>   0.0800 
 27 H       -0.7710    -0.4140    -0.2380 H     1 <1>   0.0800 
 28 H       -1.7720    -4.4010     0.4070 H     1 <1>   0.0800 
 29 H       -2.8230    -3.4560    -0.6120 H     1 <1>   0.0800 
 30 H       -2.8400     0.2300     1.0040 H     1 <1>   0.0800 
 31 H       -1.7490    -0.7190     1.9910 H     1 <1>   0.0800 
 32 H       -2.3410    -3.0420     2.3610 H     1 <1>   0.0800 
 33 H       -3.8150    -3.6140     1.6120 H     1 <1>   0.0800 
 34 H        6.2870    -2.3570    -0.4800 H     1 <1>   0.3700 
 35 H        6.6710    -4.0630     1.9310 H     1 <1>   0.0800 
 36 H        8.4930    -1.9790     0.6780 H     1 <1>   0.0800 
 37 H        8.8760    -2.9760     2.0590 H     1 <1>   0.0800 
 38 H        7.6010    -1.7970     2.1800 H     1 <1>   0.0800 
 39 H        8.1170    -4.0740    -0.7420 H     1 <1>   0.0800 
 40 H        6.9640    -5.2790    -0.1920 H     1 <1>   0.0800 
 41 H        8.4890    -5.0900     0.6280 H     1 <1>   0.0800 
@<TRIPOS>BOND
  1   1   2  1   
  2   2   3  ar  
  3   2   4  ar  
  4   3   5  1   
  5   3   6  ar  
  6   4   7  ar  
  7   4  23  1   
  8   5   8  2   
  9   5   9  2   
 10   5  10  am  
 11   6  11  ar  
 12   6  24  1   
 13   7  11  ar  
 14   7  25  1   
 15  10  12  1   
 16  10  13  1   
 17  11  14  1   
 18  12  15  1   
 19  12  26  1   
 20  12  27  1   
 21  13  16  1   
 22  13  28  1   
 23  13  29  1   
 24  14  17  2   
 25  14  18  am  
 26  15  19  1   
 27  15  30  1   
 28  15  31  1   
 29  16  19  1   
 30  16  32  1   
 31  16  33  1   
 32  18  20  1   
 33  18  34  1   
 34  20  21  1   
 35  20  22  1   
 36  20  35  1   
 37  21  36  1   
 38  21  37  1   
 39  21  38  1   
 40  22  39  1   
 41  22  40  1   
 42  22  41  1   
@<TRIPOS>SUBSTRUCTURE
  1 ****   6 GROUP 4 **** **** 0

# MOE 2024.06 (io_trps.svl 2023.06)
