@<TRIPOS>MOLECULE
3-(4,5,6,7-Tetrahydro-2H-indazol-3-yl)-propionic acid
27 28 1 0 0 
SMALL
USER_CHARGES


@<TRIPOS>ATOM
  1 O       -0.8400     0.2710    -0.3930 O.co2 1 <1>  -0.9000 
  2 C       -0.7120     1.3760     0.1430 C.2   1 <1>   0.9060 
  3 O        0.3850     1.9070     0.3300 O.co2 1 <1>  -0.9000 
  4 C       -1.9580     2.1010     0.5710 C.3   1 <1>  -0.2660 
  5 C       -2.6570     2.7260    -0.6420 C.3   1 <1>   0.0210 
  6 C       -4.0800     3.1500    -0.3190 C.2   1 <1>   0.1080 
  7 N       -4.4310     4.3710    -0.0380 N.2   1 <1>  -0.7070 
  8 C       -5.1670     2.2810    -0.2950 C.2   1 <1>  -0.1810 
  9 N       -5.7590     4.3030     0.1790 N.pl3 1 <1>   0.3000 
 10 C       -6.2240     3.0480     0.0230 C.2   1 <1>  -0.3320 
 11 C       -5.2430     0.7890    -0.5590 C.3   1 <1>   0.0210 
 12 C       -7.6490     2.5530     0.1800 C.3   1 <1>   0.0200 
 13 C       -6.5830     0.2330    -0.0360 C.3   1 <1>  -0.1600 
 14 C       -7.7740     1.1380    -0.4180 C.3   1 <1>  -0.1600 
 15 H       -1.6990     2.8630     1.2810 H     1 <1>   0.0800 
 16 H       -2.6010     1.3890     1.0490 H     1 <1>   0.0800 
 17 H       -2.6870     2.0100    -1.4440 H     1 <1>   0.0800 
 18 H       -2.0930     3.5760    -0.9820 H     1 <1>   0.0800 
 19 H       -6.3110     5.1290     0.4310 H     1 <1>   0.2700 
 20 H       -4.4220     0.2850    -0.0800 H     1 <1>   0.0800 
 21 H       -5.1650     0.6250    -1.6180 H     1 <1>   0.0800 
 22 H       -8.3340     3.2180    -0.3160 H     1 <1>   0.0800 
 23 H       -7.8920     2.5260     1.2280 H     1 <1>   0.0800 
 24 H       -6.5290     0.1610     1.0360 H     1 <1>   0.0800 
 25 H       -6.7310    -0.7580    -0.4280 H     1 <1>   0.0800 
 26 H       -7.8120     1.2190    -1.4900 H     1 <1>   0.0800 
 27 H       -8.6950     0.6900    -0.0870 H     1 <1>   0.0800 
@<TRIPOS>BOND
  1   1   2  ar  
  2   2   3  ar  
  3   2   4  1   
  4   4   5  1   
  5   4  15  1   
  6   4  16  1   
  7   5   6  1   
  8   5  17  1   
  9   5  18  1   
 10   6   7  2   
 11   6   8  1   
 12   7   9  1   
 13   8  10  2   
 14   8  11  1   
 15   9  10  1   
 16   9  19  1   
 17  10  12  1   
 18  11  13  1   
 19  11  20  1   
 20  11  21  1   
 21  12  14  1   
 22  12  22  1   
 23  12  23  1   
 24  13  14  1   
 25  13  24  1   
 26  13  25  1   
 27  14  26  1   
 28  14  27  1   
@<TRIPOS>SUBSTRUCTURE
  1 ****   8 GROUP 4 **** **** 0

# MOE 2024.06 (io_trps.svl 2023.06)
