@<TRIPOS>MOLECULE
N-Bicyclo[2.2.1]hept-2-yl-2-(5-ethyl-4H-[1,2,4]triazol-3-ylsulfanyl)-acetamide
39 41 1 0 0 
SMALL
USER_CHARGES


@<TRIPOS>ATOM
  1 S       -0.4290     3.1430    -2.6250 S.3   1 <1>  -0.2860 
  2 C        0.1330     1.6960    -1.6980 C.2   1 <1>   0.2420 
  3 C       -0.5600     4.5470    -1.4160 C.3   1 <1>   0.1310 
  4 N        0.3060     0.5450    -2.2440 N.2   1 <1>  -0.3380 
  5 N        0.3920     1.6900    -0.3940 N.pl3 1 <1>   0.0330 
  6 C       -1.2970     4.0880    -0.1750 C.2   1 <1>   0.5690 
  7 N        0.6920    -0.2760    -1.2580 N.2   1 <1>  -0.3380 
  8 C        0.7330     0.4200    -0.1710 C.2   1 <1>   0.0060 
  9 O       -0.6820     4.0320     0.8640 O.2   1 <1>  -0.5700 
 10 N       -2.5730     3.6440    -0.2820 N.am  1 <1>  -0.7300 
 11 C        1.0990    -0.1200     1.1990 C.3   1 <1>   0.0200 
 12 C       -3.3080     2.9460     0.7960 C.3   1 <1>   0.2200 
 13 C        2.3020     0.6170     1.7960 C.3   1 <1>  -0.2400 
 14 C       -3.0700     1.3260     0.7250 C.3   1 <1>  -0.0800 
 15 C       -4.9460     3.2210     0.6440 C.3   1 <1>  -0.1600 
 16 C       -4.3910     1.5390     0.7120 C.3   1 <1>  -0.1600 
 17 C       -3.8230    -0.1240     0.7710 C.3   1 <1>  -0.1600 
 18 C       -5.7060     1.7710     0.6710 C.3   1 <1>  -0.0800 
 19 C       -5.4680     0.1530     0.6250 C.3   1 <1>  -0.1600 
 20 H       -1.0870     5.3450    -1.9040 H     1 <1>   0.0800 
 21 H        0.4410     4.8570    -1.1760 H     1 <1>   0.0800 
 22 H        0.3040     2.4590     0.2790 H     1 <1>   0.2700 
 23 H       -3.0030     3.5630    -1.2070 H     1 <1>   0.3700 
 24 H        1.3330    -1.1670     1.1080 H     1 <1>   0.0800 
 25 H        0.2500    -0.0280     1.8540 H     1 <1>   0.0800 
 26 H       -2.9680     3.3170     1.7530 H     1 <1>   0.0800 
 27 H        3.1450     0.5410     1.1330 H     1 <1>   0.0800 
 28 H        2.5670     0.1800     2.7420 H     1 <1>   0.0800 
 29 H        2.0730     1.6560     1.9520 H     1 <1>   0.0800 
 30 H       -2.5030     1.2200    -0.1910 H     1 <1>   0.0800 
 31 H       -5.1650     3.7350    -0.2790 H     1 <1>   0.0800 
 32 H       -5.2890     3.8430     1.4550 H     1 <1>   0.0800 
 33 H       -4.3620     1.5480    -0.4670 H     1 <1>   0.0800 
 34 H       -4.4230     1.5440     1.8890 H     1 <1>   0.0800 
 35 H       -3.6100    -0.6250     1.7040 H     1 <1>   0.0800 
 36 H       -3.4760    -0.7650    -0.0260 H     1 <1>   0.0800 
 37 H       -6.2930     1.8630     1.5760 H     1 <1>   0.0800 
 38 H       -6.0050    -0.3430     1.4190 H     1 <1>   0.0800 
 39 H       -5.8300    -0.2490    -0.3100 H     1 <1>   0.0800 
@<TRIPOS>BOND
  1   1   2  1   
  2   1   3  1   
  3   2   4  2   
  4   2   5  1   
  5   3   6  1   
  6   3  20  1   
  7   3  21  1   
  8   4   7  1   
  9   5   8  1   
 10   5  22  1   
 11   6   9  2   
 12   6  10  am  
 13   7   8  2   
 14   8  11  1   
 15  10  12  1   
 16  10  23  1   
 17  11  13  1   
 18  11  24  1   
 19  11  25  1   
 20  12  14  1   
 21  12  15  1   
 22  12  26  1   
 23  13  27  1   
 24  13  28  1   
 25  13  29  1   
 26  14  16  1   
 27  14  17  1   
 28  14  30  1   
 29  15  18  1   
 30  15  31  1   
 31  15  32  1   
 32  16  18  1   
 33  16  33  1   
 34  16  34  1   
 35  17  19  1   
 36  17  35  1   
 37  17  36  1   
 38  18  19  1   
 39  18  37  1   
 40  19  38  1   
 41  19  39  1   
@<TRIPOS>SUBSTRUCTURE
  1 ****  14 GROUP 4 **** **** 0

# MOE 2024.06 (io_trps.svl 2023.06)
