@<TRIPOS>MOLECULE
N-[3-(2-Chloro-phenyl)-[1,2,4]oxadiazol-5-ylmethyl]-butyramide
33 34 1 0 0 
SMALL
USER_CHARGES


@<TRIPOS>ATOM
  1 CL      -0.7490    -0.2760     0.1950 Cl    1 <1>  -0.1770 
  2 C        0.1540    -1.6890    -0.3020 C.ar  1 <1>   0.1770 
  3 C        1.5300    -1.6140    -0.5200 C.ar  1 <1>   0.0540 
  4 C       -0.5540    -2.8630    -0.4840 C.ar  1 <1>  -0.1500 
  5 C        2.2840    -0.3990    -0.3200 C.2   1 <1>   0.4620 
  6 C        2.1680    -2.7770    -0.9530 C.ar  1 <1>  -0.1500 
  7 C        0.1070    -4.0040    -0.9040 C.ar  1 <1>  -0.1500 
  8 N        3.0300     0.1640    -1.2020 N.2   1 <1>  -0.4100 
  9 N        2.3040     0.2570     0.8420 N.2   1 <1>  -0.5650 
 10 C        1.4700    -3.9570    -1.1410 C.ar  1 <1>  -0.1500 
 11 O        3.5590     1.2150    -0.6590 O.3   1 <1>  -0.0190 
 12 C        3.0860     1.2160     0.5600 C.2   1 <1>   0.2980 
 13 C        3.5000     2.3390     1.4990 C.3   1 <1>   0.3200 
 14 N        4.9350     2.2410     1.8750 N.am  1 <1>  -0.7300 
 15 C        5.9960     2.9040     1.3660 C.2   1 <1>   0.5690 
 16 O        7.0930     2.6590     1.7940 O.2   1 <1>  -0.5700 
 17 C        5.8060     3.9460     0.2700 C.3   1 <1>  -0.0990 
 18 C        7.1200     4.4970    -0.3130 C.3   1 <1>  -0.1600 
 19 C        6.8560     5.5250    -1.4180 C.3   1 <1>  -0.2400 
 20 H       -1.6130    -2.8800    -0.3010 H     1 <1>   0.1500 
 21 H        3.2280    -2.7500    -1.1410 H     1 <1>   0.1500 
 22 H       -0.4370    -4.9230    -1.0480 H     1 <1>   0.1500 
 23 H        1.9870    -4.8410    -1.4720 H     1 <1>   0.1500 
 24 H        2.9020     2.2840     2.3910 H     1 <1>   0.0800 
 25 H        3.3000     3.2830     1.0250 H     1 <1>   0.0800 
 26 H        5.1650     1.5090     2.5520 H     1 <1>   0.3700 
 27 H        5.2370     4.7610     0.6770 H     1 <1>   0.0800 
 28 H        5.2400     3.5000    -0.5270 H     1 <1>   0.0800 
 29 H        7.7020     3.6830    -0.7120 H     1 <1>   0.0800 
 30 H        7.6960     4.9560     0.4740 H     1 <1>   0.0800 
 31 H        6.3050     5.0780    -2.2260 H     1 <1>   0.0800 
 32 H        7.7900     5.8920    -1.8050 H     1 <1>   0.0800 
 33 H        6.2960     6.3590    -1.0330 H     1 <1>   0.0800 
@<TRIPOS>BOND
  1   1   2  1   
  2   2   3  ar  
  3   2   4  ar  
  4   3   5  1   
  5   3   6  ar  
  6   4   7  ar  
  7   4  20  1   
  8   5   8  2   
  9   5   9  1   
 10   6  10  ar  
 11   6  21  1   
 12   7  10  ar  
 13   7  22  1   
 14   8  11  1   
 15   9  12  2   
 16  10  23  1   
 17  11  12  1   
 18  12  13  1   
 19  13  14  1   
 20  13  24  1   
 21  13  25  1   
 22  14  15  am  
 23  14  26  1   
 24  15  16  2   
 25  15  17  1   
 26  17  18  1   
 27  17  27  1   
 28  17  28  1   
 29  18  19  1   
 30  18  29  1   
 31  18  30  1   
 32  19  31  1   
 33  19  32  1   
 34  19  33  1   
@<TRIPOS>SUBSTRUCTURE
  1 ****  12 GROUP 4 **** **** 0

# MOE 2024.06 (io_trps.svl 2023.06)
