@<TRIPOS>MOLECULE
8-(3-Chloro-4-methoxy-phenyl)-1,6,7-trimethyl-3-propyl-1H,8H-imidazo[2,1-f]purin
52 55 1 0 0 
SMALL
USER_CHARGES


@<TRIPOS>ATOM
  1 CL      -1.6030    -1.5820     2.7060 Cl    1 <1>  -0.1840 
  2 C       -2.5000    -1.4780     1.2080 C.ar  1 <1>   0.1700 
  3 C       -2.1760    -2.2820     0.1190 C.ar  1 <1>   0.0750 
  4 C       -3.5490    -0.5830     1.1420 C.ar  1 <1>  -0.1570 
  5 O       -1.1710    -3.1830     0.1620 O.3   1 <1>  -0.3680 
  6 C       -2.9240    -2.1820    -1.0430 C.ar  1 <1>  -0.1570 
  7 C       -4.2980    -0.4860    -0.0210 C.ar  1 <1>   0.3050 
  8 C        0.1380    -2.6780     0.0140 C.3   1 <1>   0.0320 
  9 C       -3.9770    -1.2850    -1.1120 C.ar  1 <1>  -0.1570 
 10 N       -5.3820     0.4030    -0.0900 N.pl3 1 <1>  -0.5550 
 11 C       -6.6650     0.1230     0.1690 C.cat 1 <1>   1.0690 
 12 C       -5.3690     1.7510    -0.4290 C.2   1 <1>   0.1580 
 13 N       -7.3600    -0.9550     0.5430 N.pl3 1 <1>  -0.7030 
 14 N       -7.4480     1.1810     0.0210 N.pl3 1 <1>  -0.6330 
 15 C       -6.6340     2.2280    -0.3610 C.2   1 <1>   0.2340 
 16 C       -4.0700     2.4500    -0.7970 C.3   1 <1>  -0.1090 
 17 C       -8.6630    -0.5560     0.6370 C.2   1 <1>   0.4210 
 18 C       -8.7540     0.7600     0.3240 C.2   1 <1>   0.2710 
 19 C       -7.2130     3.6060    -0.6200 C.3   1 <1>  -0.1090 
 20 N       -9.7540    -1.3240     0.9930 N.am  1 <1>  -0.4410 
 21 C      -10.0290     1.4020     0.3640 C.2   1 <1>   0.7000 
 22 C      -10.9990    -0.7070     1.0600 C.2   1 <1>   0.6870 
 23 C       -9.6070    -2.7730     1.3260 C.3   1 <1>   0.0530 
 24 O      -10.1500     2.5830     0.0860 O.2   1 <1>  -0.5740 
 25 N      -11.1290     0.6390     0.7320 N.am  1 <1>  -0.4250 
 26 O      -11.9660    -1.3500     1.4110 O.2   1 <1>  -0.5740 
 27 C      -12.4830     1.2690     0.7550 C.3   1 <1>   0.1330 
 28 C      -13.1510     1.1290    -0.6170 C.3   1 <1>  -0.1670 
 29 C      -14.5420     1.7680    -0.6220 C.3   1 <1>  -0.2460 
 30 H       -3.7740     0.0290     1.9960 H     1 <1>   0.1430 
 31 H       -2.6730    -2.8090    -1.8830 H     1 <1>   0.1430 
 32 H        0.8220    -3.5070     0.0390 H     1 <1>   0.0730 
 33 H        0.3530    -2.0030     0.8230 H     1 <1>   0.0730 
 34 H        0.2110    -2.1690    -0.9310 H     1 <1>   0.0730 
 35 H       -4.5460    -1.2080    -2.0220 H     1 <1>   0.1430 
 36 H       -6.9650    -1.8760     0.7240 H     1 <1>   0.4450 
 37 H       -3.6220     1.9740    -1.6510 H     1 <1>   0.0730 
 38 H       -3.3790     2.4050     0.0260 H     1 <1>   0.0730 
 39 H       -4.2440     3.4830    -1.0370 H     1 <1>   0.0730 
 40 H       -7.6930     3.9760     0.2680 H     1 <1>   0.0730 
 41 H       -7.9440     3.5560    -1.4070 H     1 <1>   0.0730 
 42 H       -6.4460     4.3000    -0.9090 H     1 <1>   0.0730 
 43 H       -8.8590    -3.2300     0.7030 H     1 <1>   0.0730 
 44 H      -10.5360    -3.2940     1.1650 H     1 <1>   0.0730 
 45 H       -9.3300    -2.8810     2.3610 H     1 <1>   0.0730 
 46 H      -12.4010     2.3110     1.0140 H     1 <1>   0.0730 
 47 H      -13.0960     0.7990     1.5060 H     1 <1>   0.0730 
 48 H      -13.2480     0.0860    -0.8660 H     1 <1>   0.0730 
 49 H      -12.5460     1.6100    -1.3660 H     1 <1>   0.0730 
 50 H      -15.1780     1.2930     0.1050 H     1 <1>   0.0730 
 51 H      -14.9940     1.6580    -1.5920 H     1 <1>   0.0730 
 52 H      -14.4770     2.8180    -0.3940 H     1 <1>   0.0730 
@<TRIPOS>BOND
  1   1   2  1   
  2   2   3  ar  
  3   2   4  ar  
  4   3   5  1   
  5   3   6  ar  
  6   4   7  ar  
  7   4  30  1   
  8   5   8  1   
  9   6   9  ar  
 10   6  31  1   
 11   7   9  ar  
 12   7  10  1   
 13   8  32  1   
 14   8  33  1   
 15   8  34  1   
 16   9  35  1   
 17  10  11  ar  
 18  10  12  1   
 19  11  13  ar  
 20  11  14  ar  
 21  12  15  2   
 22  12  16  1   
 23  13  17  1   
 24  13  36  1   
 25  14  15  1   
 26  14  18  1   
 27  15  19  1   
 28  16  37  1   
 29  16  38  1   
 30  16  39  1   
 31  17  18  2   
 32  17  20  1   
 33  18  21  1   
 34  19  40  1   
 35  19  41  1   
 36  19  42  1   
 37  20  22  am  
 38  20  23  1   
 39  21  24  2   
 40  21  25  am  
 41  22  25  am  
 42  22  26  2   
 43  23  43  1   
 44  23  44  1   
 45  23  45  1   
 46  25  27  1   
 47  27  28  1   
 48  27  46  1   
 49  27  47  1   
 50  28  29  1   
 51  28  48  1   
 52  28  49  1   
 53  29  50  1   
 54  29  51  1   
 55  29  52  1   
@<TRIPOS>SUBSTRUCTURE
  1 ****  11 GROUP 4 **** **** 0

# MOE 2024.06 (io_trps.svl 2023.06)
