@<TRIPOS>MOLECULE
2-(5-Methyl-furan-2-yl)-2-morpholin-4-yl-ethylamine
34 35 1 0 0 
SMALL
USER_CHARGES


@<TRIPOS>ATOM
  1 O       -0.7540    -0.4060     0.1930 O.3   1 <1>  -0.5600 
  2 C       -0.4690    -1.1610     1.3330 C.3   1 <1>   0.1200 
  3 C       -0.2910    -0.9620    -1.0020 C.3   1 <1>   0.1200 
  4 C       -1.0490    -2.5800     1.1900 C.3   1 <1>   0.1100 
  5 C       -0.8550    -2.3830    -1.1920 C.3   1 <1>   0.1100 
  6 N       -0.5270    -3.2510    -0.0330 N.3   1 <1>  -0.8100 
  7 C       -1.0670    -4.6340    -0.2330 C.3   1 <1>   0.3700 
  8 C       -2.5510    -4.7820     0.0810 C.2   1 <1>  -0.0400 
  9 C       -0.2130    -5.6170     0.5930 C.3   1 <1>   0.3430 
 10 O       -3.4140    -4.3250    -0.8050 O.3   1 <1>  -0.2800 
 11 C       -3.2080    -5.3230     1.1340 C.2   1 <1>  -0.1500 
 12 N        1.2130    -5.1670     0.5920 N.4   1 <1>  -0.8530 
 13 C       -4.6260    -4.5500    -0.3460 C.2   1 <1>  -0.0400 
 14 C       -4.5700    -5.1670     0.8520 C.2   1 <1>  -0.1500 
 15 C       -5.8110    -4.1080    -1.1770 C.3   1 <1>  -0.0600 
 16 H       -0.9150    -0.6580     2.1730 H     1 <1>   0.0800 
 17 H        0.5970    -1.1880     1.4690 H     1 <1>   0.0800 
 18 H        0.7840    -0.9750    -0.9820 H     1 <1>   0.0800 
 19 H       -0.6140    -0.3230    -1.8050 H     1 <1>   0.0800 
 20 H       -2.1230    -2.4910     1.1430 H     1 <1>   0.0800 
 21 H       -0.8010    -3.1510     2.0670 H     1 <1>   0.0800 
 22 H       -0.4450    -2.8010    -2.0950 H     1 <1>   0.0800 
 23 H       -1.9240    -2.3100    -1.3150 H     1 <1>   0.0800 
 24 H       -0.9360    -4.9070    -1.2670 H     1 <1>   0.0800 
 25 H       -0.3110    -6.6170     0.2030 H     1 <1>   0.0800 
 26 H       -0.5880    -5.6120     1.6030 H     1 <1>   0.0800 
 27 H       -2.8360    -5.7850     2.0310 H     1 <1>   0.1500 
 28 H        1.7190    -5.4790    -0.2420 H     1 <1>   0.4500 
 29 H        1.7260    -5.4290     1.4390 H     1 <1>   0.4500 
 30 H        1.1480    -4.1310     0.5300 H     1 <1>   0.4500 
 31 H       -5.3830    -5.4840     1.4820 H     1 <1>   0.1500 
 32 H       -5.7720    -3.0450    -1.3300 H     1 <1>   0.0800 
 33 H       -6.7300    -4.3560    -0.6770 H     1 <1>   0.0800 
 34 H       -5.7890    -4.5990    -2.1330 H     1 <1>   0.0800 
@<TRIPOS>BOND
  1   1   2  1   
  2   1   3  1   
  3   2   4  1   
  4   2  16  1   
  5   2  17  1   
  6   3   5  1   
  7   3  18  1   
  8   3  19  1   
  9   4   6  1   
 10   4  20  1   
 11   4  21  1   
 12   5   6  1   
 13   5  22  1   
 14   5  23  1   
 15   6   7  1   
 16   7   8  1   
 17   7   9  1   
 18   7  24  1   
 19   8  10  1   
 20   8  11  2   
 21   9  12  1   
 22   9  25  1   
 23   9  26  1   
 24  10  13  1   
 25  11  14  1   
 26  11  27  1   
 27  12  28  1   
 28  12  29  1   
 29  12  30  1   
 30  13  14  2   
 31  13  15  1   
 32  14  31  1   
 33  15  32  1   
 34  15  33  1   
 35  15  34  1   
@<TRIPOS>SUBSTRUCTURE
  1 ****   7 GROUP 4 **** **** 0

# MOE 2024.06 (io_trps.svl 2023.06)
