@<TRIPOS>MOLECULE
Cyclopentyl-[2-(4-fluoro-phenyl)-imidazo[1,2-a]pyrazin-3-yl]-amine
40 43 1 0 0 
SMALL
USER_CHARGES


@<TRIPOS>ATOM
  1 F       -0.9660    -1.1550    -0.1800 F     1 <1>  -0.1900 
  2 C       -2.2560    -0.9740    -0.1090 C.ar  1 <1>   0.1900 
  3 C       -2.7980    -0.4830     1.0620 C.ar  1 <1>  -0.1500 
  4 C       -3.0370    -1.2790    -1.2060 C.ar  1 <1>  -0.1500 
  5 C       -4.1670    -0.2950     1.1330 C.ar  1 <1>  -0.1500 
  6 C       -4.4040    -1.0850    -1.1230 C.ar  1 <1>  -0.1500 
  7 C       -4.9950    -0.5940     0.0460 C.ar  1 <1>   0.0410 
  8 C       -6.4210    -0.4110     0.1280 C.2   1 <1>   0.3090 
  9 N       -7.0220     0.7420     0.5880 N.pl3 1 <1>  -0.7000 
 10 C       -7.4330    -1.2740    -0.2030 C.2   1 <1>   0.4460 
 11 C       -8.3600     0.5860     0.5150 C.cat 1 <1>   0.7510 
 12 N       -8.6210    -0.6520     0.0320 N.pl3 1 <1>  -0.6290 
 13 N       -7.4260    -2.5660    -0.6970 N.pl3 1 <1>  -0.8650 
 14 C       -9.4510     1.4520     0.8270 C.2   1 <1>   0.4390 
 15 C       -9.9390    -0.9980    -0.1840 C.2   1 <1>   0.2290 
 16 C       -7.7600    -3.6620     0.2330 C.3   1 <1>   0.2890 
 17 N      -10.7040     1.1360     0.6570 N.2   1 <1>  -0.6210 
 18 C      -10.9270    -0.1080     0.1350 C.2   1 <1>   0.0210 
 19 C       -6.5380    -3.9870     1.0860 C.3   1 <1>  -0.1600 
 20 C       -7.9460    -4.9290    -0.5900 C.3   1 <1>  -0.1600 
 21 C       -5.6220    -4.8320     0.1950 C.3   1 <1>  -0.1600 
 22 C       -6.5320    -5.4570    -0.8700 C.3   1 <1>  -0.1600 
 23 H       -2.1540    -0.2580     1.8950 H     1 <1>   0.1500 
 24 H       -2.5740    -1.6570    -2.1020 H     1 <1>   0.1500 
 25 H       -4.5920     0.0790     2.0490 H     1 <1>   0.1500 
 26 H       -5.0120    -1.3120    -1.9820 H     1 <1>   0.1500 
 27 H       -6.5140     1.5810     0.8820 H     1 <1>   0.4500 
 28 H       -6.5480    -2.8320    -1.1540 H     1 <1>   0.4000 
 29 H       -9.2160     2.4230     1.2250 H     1 <1>   0.0600 
 30 H      -10.1450    -1.9700    -0.6060 H     1 <1>   0.1500 
 31 H       -8.6290    -3.4240     0.8240 H     1 <1>   0.0800 
 32 H      -11.9610    -0.3690    -0.0260 H     1 <1>   0.1500 
 33 H       -6.8590    -4.5920     1.9170 H     1 <1>   0.0800 
 34 H       -6.0450    -3.1150     1.4770 H     1 <1>   0.0800 
 35 H       -8.5090    -4.7550    -1.4900 H     1 <1>   0.0800 
 36 H       -8.4730    -5.6520     0.0090 H     1 <1>   0.0800 
 37 H       -5.1170    -5.5900     0.7720 H     1 <1>   0.0800 
 38 H       -4.8800    -4.2100    -0.2770 H     1 <1>   0.0800 
 39 H       -6.2110    -5.1520    -1.8520 H     1 <1>   0.0800 
 40 H       -6.5110    -6.5330    -0.8220 H     1 <1>   0.0800 
@<TRIPOS>BOND
  1   1   2  1   
  2   2   3  ar  
  3   2   4  ar  
  4   3   5  ar  
  5   3  23  1   
  6   4   6  ar  
  7   4  24  1   
  8   5   7  ar  
  9   5  25  1   
 10   6   7  ar  
 11   6  26  1   
 12   7   8  1   
 13   8   9  1   
 14   8  10  2   
 15   9  11  ar  
 16   9  27  1   
 17  10  12  1   
 18  10  13  1   
 19  11  12  ar  
 20  11  14  1   
 21  12  15  1   
 22  13  16  1   
 23  13  28  1   
 24  14  17  2   
 25  14  29  1   
 26  15  18  2   
 27  15  30  1   
 28  16  19  1   
 29  16  20  1   
 30  16  31  1   
 31  17  18  1   
 32  18  32  1   
 33  19  21  1   
 34  19  33  1   
 35  19  34  1   
 36  20  22  1   
 37  20  35  1   
 38  20  36  1   
 39  21  22  1   
 40  21  37  1   
 41  21  38  1   
 42  22  39  1   
 43  22  40  1   
@<TRIPOS>SUBSTRUCTURE
  1 ****  10 GROUP 4 **** **** 0

# MOE 2024.06 (io_trps.svl 2023.06)
