@<TRIPOS>MOLECULE
Thiophene-2-carboxylic acid (5-ethoxymethyl-[1,3,4]thiadiazol-2-yl)-amide
28 29 1 0 0 
SMALL
USER_CHARGES


@<TRIPOS>ATOM
  1 S       -0.2700     0.2820    -0.1030 S.3   1 <1>  -0.0800 
  2 C       -1.7630     0.5760    -0.9310 C.2   1 <1>   0.4420 
  3 C        0.4990     1.2900    -1.2830 C.2   1 <1>   0.1980 
  4 N       -1.6090     1.3350    -1.9550 N.2   1 <1>  -0.3380 
  5 N       -2.8830    -0.0180    -0.3940 N.am  1 <1>  -0.4940 
  6 N       -0.3170     1.7380    -2.1490 N.2   1 <1>  -0.3380 
  7 C        1.9970     1.5170    -1.1830 C.3   1 <1>   0.3000 
  8 C       -4.1750    -0.0400    -0.8500 C.2   1 <1>   0.7150 
  9 O        2.3510     1.8560     0.1270 O.3   1 <1>  -0.5600 
 10 O       -4.4470     0.4290    -1.9350 O.2   1 <1>  -0.5700 
 11 C       -5.1810    -0.6450    -0.0140 C.2   1 <1>  -0.0450 
 12 C        3.6970     2.1440     0.2970 C.3   1 <1>   0.1200 
 13 S       -6.8280    -0.8000    -0.6390 S.3   1 <1>  -0.0800 
 14 C       -5.1510    -1.1660     1.2430 C.2   1 <1>  -0.1500 
 15 C        3.9110     2.4730     1.7680 C.3   1 <1>  -0.2400 
 16 C       -7.3980    -1.5630     0.8270 C.2   1 <1>  -0.1100 
 17 C       -6.3940    -1.6820     1.7140 C.2   1 <1>  -0.1500 
 18 H       -2.7300    -0.5150     0.4750 H     1 <1>   0.3700 
 19 H        2.2830     2.3210    -1.8380 H     1 <1>   0.0800 
 20 H        2.5200     0.6190    -1.4580 H     1 <1>   0.0800 
 21 H        3.9560     2.9880    -0.3210 H     1 <1>   0.0800 
 22 H        4.2800     1.2830     0.0130 H     1 <1>   0.0800 
 23 H       -4.2850    -1.2100     1.8800 H     1 <1>   0.1500 
 24 H        3.3160     3.3250     2.0460 H     1 <1>   0.0800 
 25 H        4.9460     2.7050     1.9440 H     1 <1>   0.0800 
 26 H        3.6390     1.6310     2.3790 H     1 <1>   0.0800 
 27 H       -8.4350    -1.8460     0.8710 H     1 <1>   0.1500 
 28 H       -6.4840    -2.1170     2.6940 H     1 <1>   0.1500 
@<TRIPOS>BOND
  1   1   2  1   
  2   1   3  1   
  3   2   4  2   
  4   2   5  1   
  5   3   6  2   
  6   3   7  1   
  7   4   6  1   
  8   5   8  am  
  9   5  18  1   
 10   7   9  1   
 11   7  19  1   
 12   7  20  1   
 13   8  10  2   
 14   8  11  1   
 15   9  12  1   
 16  11  13  1   
 17  11  14  2   
 18  12  15  1   
 19  12  21  1   
 20  12  22  1   
 21  13  16  1   
 22  14  17  1   
 23  14  23  1   
 24  15  24  1   
 25  15  25  1   
 26  15  26  1   
 27  16  17  2   
 28  16  27  1   
 29  17  28  1   
@<TRIPOS>SUBSTRUCTURE
  1 ****   2 GROUP 4 **** **** 0

# MOE 2024.06 (io_trps.svl 2023.06)
