@<TRIPOS>MOLECULE
3-Methyl-8-morpholin-4-yl-7-(3-phenoxy-propyl)-3,7-dihydro-purine-2,6-dione
52 55 1 0 0 
SMALL
USER_CHARGES


@<TRIPOS>ATOM
  1 O        0.5450     0.4160    -0.9330 O.2   1 <1>  -0.5740 
  2 C        1.6530     0.8810    -0.8040 C.2   1 <1>   0.6860 
  3 N        2.7210     0.1310    -0.3340 N.am  1 <1>  -0.4410 
  4 N        1.8500     2.1900    -1.1340 N.am  1 <1>  -0.4950 
  5 C        3.9480     0.7670    -0.2110 C.2   1 <1>   0.4210 
  6 C        2.5510    -1.3050     0.0360 C.3   1 <1>   0.0520 
  7 C        3.0520     2.8280    -1.0250 C.2   1 <1>   0.6990 
  8 N        5.1200     0.2340     0.2240 N.pl3 1 <1>  -0.7040 
  9 C        4.1580     2.0650    -0.5220 C.2   1 <1>   0.2710 
 10 O        3.1300     3.9930    -1.3600 O.2   1 <1>  -0.5740 
 11 C        6.0580     1.1840     0.2050 C.cat 1 <1>   1.0690 
 12 N        5.5160     2.3230    -0.2540 N.pl3 1 <1>  -0.7670 
 13 N        7.3280     0.9420     0.6010 N.pl3 1 <1>  -0.5960 
 14 C        6.1630     3.6020    -0.6420 C.3   1 <1>   0.3480 
 15 C        7.9600    -0.4150     0.5260 C.3   1 <1>   0.1610 
 16 C        8.2610     1.9430     1.2170 C.3   1 <1>   0.1610 
 17 C        5.9180     4.6540     0.4450 C.3   1 <1>  -0.1670 
 18 C        9.3460    -0.3270    -0.1370 C.3   1 <1>   0.1130 
 19 C        9.6300     1.9140     0.5220 C.3   1 <1>   0.1130 
 20 C        6.8350     5.8610     0.2590 C.3   1 <1>   0.1130 
 21 O       10.1360     0.6120     0.5250 O.3   1 <1>  -0.5640 
 22 O        8.1690     5.4010     0.2440 O.3   1 <1>  -0.3680 
 23 C        9.1940     6.2590     0.0080 C.ar  1 <1>   0.0750 
 24 C        9.0340     7.6380    -0.1120 C.ar  1 <1>  -0.1570 
 25 C       10.4600     5.7080    -0.1200 C.ar  1 <1>  -0.1570 
 26 C       10.1320     8.4430    -0.3600 C.ar  1 <1>  -0.1570 
 27 C       11.5560     6.5160    -0.3660 C.ar  1 <1>  -0.1570 
 28 C       11.3920     7.8840    -0.4870 C.ar  1 <1>  -0.1570 
 29 H        1.0470     2.7100    -1.4830 H     1 <1>   0.3640 
 30 H        1.5650    -1.6540    -0.2240 H     1 <1>   0.0720 
 31 H        2.6840    -1.4270     1.0970 H     1 <1>   0.0720 
 32 H        3.2690    -1.9080    -0.4900 H     1 <1>   0.0720 
 33 H        5.2620    -0.7070     0.5750 H     1 <1>   0.4450 
 34 H        5.7570     3.9510    -1.5770 H     1 <1>   0.0720 
 35 H        7.2140     3.4370    -0.7990 H     1 <1>   0.0720 
 36 H        7.3520    -1.0940    -0.0450 H     1 <1>   0.0720 
 37 H        8.0760    -0.8150     1.5190 H     1 <1>   0.0720 
 38 H        8.4070     1.6920     2.2540 H     1 <1>   0.0720 
 39 H        7.8660     2.9370     1.1920 H     1 <1>   0.0720 
 40 H        6.0890     4.2460     1.4240 H     1 <1>   0.0720 
 41 H        4.8980     4.9910     0.4000 H     1 <1>   0.0720 
 42 H        9.2670    -0.0440    -1.1730 H     1 <1>   0.0720 
 43 H        9.8510    -1.2760    -0.0780 H     1 <1>   0.0720 
 44 H       10.3290     2.5350     1.0550 H     1 <1>   0.0720 
 45 H        9.5640     2.2620    -0.4940 H     1 <1>   0.0720 
 46 H        6.7220     6.5560     1.0730 H     1 <1>   0.0720 
 47 H        6.6340     6.3550    -0.6770 H     1 <1>   0.0720 
 48 H        8.0730     8.1050    -0.0160 H     1 <1>   0.1430 
 49 H       10.5920     4.6480    -0.0280 H     1 <1>   0.1430 
 50 H       10.0070     9.5080    -0.4530 H     1 <1>   0.1430 
 51 H       12.5360     6.0820    -0.4640 H     1 <1>   0.1430 
 52 H       12.2440     8.5130    -0.6790 H     1 <1>   0.1430 
@<TRIPOS>BOND
  1   1   2  2   
  2   2   3  am  
  3   2   4  am  
  4   3   5  1   
  5   3   6  1   
  6   4   7  am  
  7   4  29  1   
  8   5   8  1   
  9   5   9  2   
 10   6  30  1   
 11   6  31  1   
 12   6  32  1   
 13   7   9  1   
 14   7  10  2   
 15   8  11  ar  
 16   8  33  1   
 17   9  12  1   
 18  11  12  ar  
 19  11  13  ar  
 20  12  14  1   
 21  13  15  1   
 22  13  16  1   
 23  14  17  1   
 24  14  34  1   
 25  14  35  1   
 26  15  18  1   
 27  15  36  1   
 28  15  37  1   
 29  16  19  1   
 30  16  38  1   
 31  16  39  1   
 32  17  20  1   
 33  17  40  1   
 34  17  41  1   
 35  18  21  1   
 36  18  42  1   
 37  18  43  1   
 38  19  21  1   
 39  19  44  1   
 40  19  45  1   
 41  20  22  1   
 42  20  46  1   
 43  20  47  1   
 44  22  23  1   
 45  23  24  ar  
 46  23  25  ar  
 47  24  26  ar  
 48  24  48  1   
 49  25  27  ar  
 50  25  49  1   
 51  26  28  ar  
 52  26  50  1   
 53  27  28  ar  
 54  27  51  1   
 55  28  52  1   
@<TRIPOS>SUBSTRUCTURE
  1 ****  14 GROUP 4 **** **** 0

# MOE 2024.06 (io_trps.svl 2023.06)
