@<TRIPOS>MOLECULE
2-(4-Chloro-3-methyl-phenoxy)-1-(4-methyl-piperazin-1-yl)-ethanone
39 40 1 0 0 
SMALL
USER_CHARGES


@<TRIPOS>ATOM
  1 CL       1.2920    -2.1230    -2.6370 Cl    1 <1>  -0.1770 
  2 C        2.3960    -1.6550    -1.3630 C.ar  1 <1>   0.1770 
  3 C        2.8020    -2.5810    -0.4120 C.ar  1 <1>  -0.1440 
  4 C        2.8440    -0.3470    -1.3350 C.ar  1 <1>  -0.1500 
  5 C        3.6790    -2.1720     0.5820 C.ar  1 <1>  -0.1500 
  6 C        2.2980    -4.0160    -0.4480 C.3   1 <1>  -0.0960 
  7 C        3.7200     0.0490    -0.3410 C.ar  1 <1>  -0.1500 
  8 C        4.1480    -0.8590     0.6160 C.ar  1 <1>   0.0830 
  9 O        5.0230    -0.3890     1.5420 O.3   1 <1>  -0.3630 
 10 C        5.6500    -1.2430     2.4930 C.3   1 <1>   0.1810 
 11 C        6.5780    -2.2790     1.8500 C.2   1 <1>   0.5690 
 12 O        6.4900    -3.4120     2.2590 O.2   1 <1>  -0.5700 
 13 N        7.4780    -1.9660     0.8520 N.am  1 <1>  -0.6600 
 14 C        7.7230    -0.5810     0.3360 C.3   1 <1>   0.1400 
 15 C        8.1560    -3.0600     0.0830 C.3   1 <1>   0.1400 
 16 C        9.2190    -0.3240     0.0620 C.3   1 <1>   0.3430 
 17 C        9.6440    -2.7530    -0.1560 C.3   1 <1>   0.3430 
 18 N        9.8430    -1.4000    -0.7860 N.4   1 <1>  -0.9590 
 19 C       11.2920    -1.1270    -1.0270 C.3   1 <1>   0.2630 
 20 H        2.5050     0.3480    -2.0820 H     1 <1>   0.1500 
 21 H        3.9840    -2.8900     1.3210 H     1 <1>   0.1500 
 22 H        1.2270    -4.0310    -0.3440 H     1 <1>   0.0800 
 23 H        2.7250    -4.5990     0.3480 H     1 <1>   0.0800 
 24 H        2.5600    -4.4750    -1.3850 H     1 <1>   0.0800 
 25 H        4.0710     1.0640    -0.3030 H     1 <1>   0.1500 
 26 H        4.8820    -1.7340     3.0630 H     1 <1>   0.0800 
 27 H        6.2190    -0.6230     3.1590 H     1 <1>   0.0800 
 28 H        7.3870     0.1490     1.0510 H     1 <1>   0.0800 
 29 H        7.1550    -0.4380    -0.5670 H     1 <1>   0.0800 
 30 H        7.6550    -3.1870    -0.8610 H     1 <1>   0.0800 
 31 H        8.0830    -3.9960     0.6110 H     1 <1>   0.0800 
 32 H        9.7320    -0.2710     1.0080 H     1 <1>   0.0800 
 33 H        9.3260     0.6320    -0.4230 H     1 <1>   0.0800 
 34 H       10.0620    -3.5190    -0.7890 H     1 <1>   0.0800 
 35 H       10.1560    -2.7930     0.7920 H     1 <1>   0.0800 
 36 H        9.3510    -1.4070    -1.6920 H     1 <1>   0.4500 
 37 H       11.8320    -1.1170    -0.0930 H     1 <1>   0.0800 
 38 H       11.4190    -0.1710    -1.5080 H     1 <1>   0.0800 
 39 H       11.7170    -1.8880    -1.6620 H     1 <1>   0.0800 
@<TRIPOS>BOND
  1   1   2  1   
  2   2   3  ar  
  3   2   4  ar  
  4   3   5  ar  
  5   3   6  1   
  6   4   7  ar  
  7   4  20  1   
  8   5   8  ar  
  9   5  21  1   
 10   6  22  1   
 11   6  23  1   
 12   6  24  1   
 13   7   8  ar  
 14   7  25  1   
 15   8   9  1   
 16   9  10  1   
 17  10  11  1   
 18  10  26  1   
 19  10  27  1   
 20  11  12  2   
 21  11  13  am  
 22  13  14  1   
 23  13  15  1   
 24  14  16  1   
 25  14  28  1   
 26  14  29  1   
 27  15  17  1   
 28  15  30  1   
 29  15  31  1   
 30  16  18  1   
 31  16  32  1   
 32  16  33  1   
 33  17  18  1   
 34  17  34  1   
 35  17  35  1   
 36  18  19  1   
 37  18  36  1   
 38  19  37  1   
 39  19  38  1   
 40  19  39  1   
@<TRIPOS>SUBSTRUCTURE
  1 ****  13 GROUP 4 **** **** 0

# MOE 2024.06 (io_trps.svl 2023.06)
