@<TRIPOS>MOLECULE
2-Adamantan-1-yl-N-(7-hydroxy-5-methyl-[1,2,4]triazolo[1,5-a]pyrimidin-6-yl)-ace
48 52 1 0 0 
SMALL
USER_CHARGES


@<TRIPOS>ATOM
  1 O        0.7950     0.9490     0.3360 O.2   1 <1>  -0.5700 
  2 C        0.8430     1.7470    -0.5680 C.2   1 <1>   0.5690 
  3 N       -0.2680     2.3460    -1.0780 N.am  1 <1>  -0.5390 
  4 C        2.1910     2.0950    -1.1720 C.3   1 <1>  -0.0990 
  5 C       -1.5900     2.3180    -0.5440 C.2   1 <1>   0.1230 
  6 C        2.8850     3.3310    -0.5560 C.3   1 <1>   0.0000 
  7 C       -2.1860     3.6000    -0.2490 C.2   1 <1>   0.5650 
  8 C       -2.2930     1.1620    -0.3150 C.2   1 <1>  -0.0380 
  9 C        2.0570     4.6240    -0.7620 C.3   1 <1>  -0.1600 
 10 C        4.2590     3.5210    -1.2420 C.3   1 <1>  -0.1600 
 11 C        3.1220     3.1410     0.9620 C.3   1 <1>  -0.1600 
 12 O       -1.6180     4.6440    -0.5590 O.2   1 <1>  -0.5700 
 13 N       -3.4530     3.5970     0.3770 N.pl3 1 <1>   0.5610 
 14 N       -3.5480     1.2210     0.2620 N.pl3 1 <1>  -0.5840 
 15 C       -1.8260    -0.2470    -0.6490 C.3   1 <1>  -0.1020 
 16 C        2.7940     5.8440    -0.1790 C.3   1 <1>  -0.0800 
 17 C        5.0050     4.7350    -0.6590 C.3   1 <1>  -0.0800 
 18 C        3.8610     4.3550     1.5560 C.3   1 <1>  -0.0800 
 19 N       -4.2600     4.5920     0.8210 N.2   1 <1>  -0.7070 
 20 C       -4.1050     2.4340     0.6110 C.2   1 <1>   0.2700 
 21 C        4.1570     6.0000    -0.8770 C.3   1 <1>  -0.1600 
 22 C        3.0170     5.6230     1.3280 C.3   1 <1>  -0.1600 
 23 C        5.2190     4.5180     0.8500 C.3   1 <1>  -0.1600 
 24 C       -5.2840     3.9480     1.2680 C.2   1 <1>   0.3660 
 25 N       -5.2490     2.6110     1.1660 N.2   1 <1>  -0.5650 
 26 H       -0.0770     3.1760    -1.6470 H     1 <1>   0.3700 
 27 H        2.0660     2.2420    -2.2290 H     1 <1>   0.0800 
 28 H        2.8290     1.2390    -1.0470 H     1 <1>   0.0800 
 29 H        1.1060     4.5430    -0.2680 H     1 <1>   0.0800 
 30 H        1.8760     4.7860    -1.8100 H     1 <1>   0.0800 
 31 H        4.8620     2.6390    -1.1060 H     1 <1>   0.0800 
 32 H        4.1260     3.6630    -2.3000 H     1 <1>   0.0800 
 33 H        3.6990     2.2490     1.1340 H     1 <1>   0.0800 
 34 H        2.1830     3.0210     1.4740 H     1 <1>   0.0800 
 35 H       -4.0900     0.3770     0.4830 H     1 <1>   0.4000 
 36 H       -2.6100    -0.7930    -1.1420 H     1 <1>   0.0800 
 37 H       -1.5540    -0.7630     0.2550 H     1 <1>   0.0800 
 38 H       -0.9730    -0.2360    -1.3010 H     1 <1>   0.0800 
 39 H        2.2030     6.7310    -0.3310 H     1 <1>   0.0800 
 40 H        5.9580     4.8470    -1.1480 H     1 <1>   0.0800 
 41 H        4.0140     4.2050     2.6110 H     1 <1>   0.0800 
 42 H        4.6730     6.8570    -0.4800 H     1 <1>   0.0800 
 43 H        4.0110     6.1660    -1.9300 H     1 <1>   0.0800 
 44 H        3.5190     6.4750     1.7510 H     1 <1>   0.0800 
 45 H        2.0680     5.5230     1.8270 H     1 <1>   0.0800 
 46 H        5.7480     5.3570     1.2670 H     1 <1>   0.0800 
 47 H        5.8210     3.6400     1.0120 H     1 <1>   0.0800 
 48 H       -6.1400     4.4380     1.7070 H     1 <1>   0.1500 
@<TRIPOS>BOND
  1   1   2  2   
  2   2   3  am  
  3   2   4  1   
  4   3   5  1   
  5   3  26  1   
  6   4   6  1   
  7   4  27  1   
  8   4  28  1   
  9   5   7  1   
 10   5   8  2   
 11   6   9  1   
 12   6  10  1   
 13   6  11  1   
 14   7  12  2   
 15   7  13  1   
 16   8  14  1   
 17   8  15  1   
 18   9  16  1   
 19   9  29  1   
 20   9  30  1   
 21  10  17  1   
 22  10  31  1   
 23  10  32  1   
 24  11  18  1   
 25  11  33  1   
 26  11  34  1   
 27  13  19  1   
 28  13  20  1   
 29  14  20  1   
 30  14  35  1   
 31  15  36  1   
 32  15  37  1   
 33  15  38  1   
 34  16  21  1   
 35  16  22  1   
 36  16  39  1   
 37  17  21  1   
 38  17  23  1   
 39  17  40  1   
 40  18  22  1   
 41  18  23  1   
 42  18  41  1   
 43  19  24  2   
 44  20  25  2   
 45  21  42  1   
 46  21  43  1   
 47  22  44  1   
 48  22  45  1   
 49  23  46  1   
 50  23  47  1   
 51  24  25  1   
 52  24  48  1   
@<TRIPOS>SUBSTRUCTURE
  1 ****   3 GROUP 4 **** **** 0

# MOE 2024.06 (io_trps.svl 2023.06)
