@<TRIPOS>MOLECULE
Pentanoic acid (3-p-tolyl-[1,2,4]oxadiazol-5-ylmethyl)-amide
39 40 1 0 0 
SMALL
USER_CHARGES


@<TRIPOS>ATOM
  1 O       -1.3160    -0.8400    -1.9950 O.2   1 <1>  -0.5700 
  2 C       -2.0560    -1.0570    -1.0720 C.2   1 <1>   0.5690 
  3 N       -1.7010    -1.9730    -0.1440 N.am  1 <1>  -0.7300 
  4 C       -3.3660    -0.2920    -0.9840 C.3   1 <1>  -0.0990 
  5 C       -2.4730    -2.4300     1.0420 C.3   1 <1>   0.3200 
  6 C       -3.2510     0.9580    -0.0960 C.3   1 <1>  -0.1600 
  7 C       -3.4740    -3.5180     0.6840 C.2   1 <1>   0.2980 
  8 C       -4.5930     1.6930     0.0050 C.3   1 <1>  -0.1600 
  9 O       -3.0210    -4.6760     0.2830 O.3   1 <1>  -0.0190 
 10 N       -4.7380    -3.4150     0.7400 N.2   1 <1>  -0.5650 
 11 C       -4.4720     2.9380     0.8880 C.3   1 <1>  -0.2400 
 12 N       -4.0910    -5.3720     0.0610 N.2   1 <1>  -0.4100 
 13 C       -5.1100    -4.6310     0.3250 C.2   1 <1>   0.4620 
 14 C       -6.5030    -5.0270     0.2000 C.ar  1 <1>   0.0540 
 15 C       -7.5470    -4.1680     0.5480 C.ar  1 <1>  -0.1500 
 16 C       -6.8570    -6.2900    -0.2780 C.ar  1 <1>  -0.1500 
 17 C       -8.8710    -4.5480     0.4270 C.ar  1 <1>  -0.1500 
 18 C       -8.1790    -6.6760    -0.4010 C.ar  1 <1>  -0.1500 
 19 C       -9.1970    -5.8070    -0.0470 C.ar  1 <1>  -0.1430 
 20 C      -10.6490    -6.2270    -0.1820 C.3   1 <1>  -0.0970 
 21 H       -0.8400    -2.4840    -0.3490 H     1 <1>   0.3700 
 22 H       -4.1400    -0.9410    -0.6190 H     1 <1>   0.0800 
 23 H       -3.6440     0.0060    -1.9790 H     1 <1>   0.0800 
 24 H       -3.0030    -1.5990     1.4710 H     1 <1>   0.0800 
 25 H       -1.7920    -2.8070     1.7840 H     1 <1>   0.0800 
 26 H       -2.5100     1.6170    -0.5170 H     1 <1>   0.0800 
 27 H       -2.9210     0.6770     0.8880 H     1 <1>   0.0800 
 28 H       -5.3380     1.0360     0.4200 H     1 <1>   0.0800 
 29 H       -4.9190     1.9880    -0.9780 H     1 <1>   0.0800 
 30 H       -4.1690     2.6670     1.8840 H     1 <1>   0.0800 
 31 H       -5.4200     3.4420     0.9450 H     1 <1>   0.0800 
 32 H       -3.7470     3.6200     0.4790 H     1 <1>   0.0800 
 33 H       -7.3200    -3.1840     0.9190 H     1 <1>   0.1500 
 34 H       -6.0830    -6.9840    -0.5590 H     1 <1>   0.1500 
 35 H       -9.6500    -3.8590     0.7040 H     1 <1>   0.1500 
 36 H       -8.4130    -7.6580    -0.7740 H     1 <1>   0.1500 
 37 H      -11.0150    -5.9610    -1.1580 H     1 <1>   0.0800 
 38 H      -11.2530    -5.7380     0.5610 H     1 <1>   0.0800 
 39 H      -10.7470    -7.2900    -0.0520 H     1 <1>   0.0800 
@<TRIPOS>BOND
  1   1   2  2   
  2   2   3  am  
  3   2   4  1   
  4   3   5  1   
  5   3  21  1   
  6   4   6  1   
  7   4  22  1   
  8   4  23  1   
  9   5   7  1   
 10   5  24  1   
 11   5  25  1   
 12   6   8  1   
 13   6  26  1   
 14   6  27  1   
 15   7   9  1   
 16   7  10  2   
 17   8  11  1   
 18   8  28  1   
 19   8  29  1   
 20   9  12  1   
 21  10  13  1   
 22  11  30  1   
 23  11  31  1   
 24  11  32  1   
 25  12  13  2   
 26  13  14  1   
 27  14  15  ar  
 28  14  16  ar  
 29  15  17  ar  
 30  15  33  1   
 31  16  18  ar  
 32  16  34  1   
 33  17  19  ar  
 34  17  35  1   
 35  18  19  ar  
 36  18  36  1   
 37  19  20  1   
 38  20  37  1   
 39  20  38  1   
 40  20  39  1   
@<TRIPOS>SUBSTRUCTURE
  1 ****  10 GROUP 4 **** **** 0

# MOE 2024.06 (io_trps.svl 2023.06)
