@<TRIPOS>MOLECULE
1-(4,5-Dichloro-2-methyl-benzenesulfonyl)-2-ethyl-4-methyl-1H-imidazole
34 35 1 0 0 
SMALL
USER_CHARGES


@<TRIPOS>ATOM
  1 CL      -3.5000     1.5580     3.7990 Cl    1 <1>  -0.1770 
  2 C       -2.9270     2.3610     2.3570 C.ar  1 <1>   0.1770 
  3 C       -1.6570     2.9010     2.3050 C.ar  1 <1>   0.1770 
  4 C       -3.7690     2.4460     1.2650 C.ar  1 <1>  -0.1500 
  5 CL      -0.5790     2.8060     3.6770 Cl    1 <1>  -0.1770 
  6 C       -1.2250     3.5250     1.1530 C.ar  1 <1>  -0.1500 
  7 C       -3.3650     3.0830     0.0890 C.ar  1 <1>  -0.0090 
  8 C       -2.0670     3.6130     0.0510 C.ar  1 <1>  -0.1440 
  9 S       -4.4740     3.2020    -1.3590 S.o2  1 <1>   1.2950 
 10 C       -1.5250     4.3020    -1.1970 C.3   1 <1>  -0.0960 
 11 O       -4.5810     4.5960    -1.7420 O.2   1 <1>  -0.6500 
 12 O       -4.0140     2.2480    -2.3490 O.2   1 <1>  -0.6500 
 13 N       -6.0400     2.6640    -0.7390 N.pl3 1 <1>   0.3170 
 14 C       -6.8860     3.3250     0.1030 C.2   1 <1>   0.0060 
 15 C       -6.5600     1.4130    -0.7990 C.2   1 <1>  -0.3020 
 16 N       -7.8510     2.5890     0.5540 N.2   1 <1>  -0.5650 
 17 C       -6.6980     4.7980     0.4730 C.3   1 <1>   0.0200 
 18 C       -7.6530     1.3920    -0.0140 C.2   1 <1>   0.0460 
 19 C       -7.6700     5.2840     1.5560 C.3   1 <1>  -0.2400 
 20 C       -8.5940     0.2430     0.2630 C.3   1 <1>  -0.0590 
 21 H       -4.7420     1.9980     1.3710 H     1 <1>   0.1500 
 22 H       -0.2310     3.9350     1.1290 H     1 <1>   0.1500 
 23 H       -0.4760     4.5170    -1.0980 H     1 <1>   0.0800 
 24 H       -2.0390     5.2320    -1.3650 H     1 <1>   0.0800 
 25 H       -1.6480     3.6740    -2.0630 H     1 <1>   0.0800 
 26 H       -6.1180     0.6300    -1.3900 H     1 <1>   0.1500 
 27 H       -6.8390     5.3980    -0.4100 H     1 <1>   0.0800 
 28 H       -5.6950     4.9580     0.8260 H     1 <1>   0.0800 
 29 H       -8.6860     5.1740     1.2170 H     1 <1>   0.0800 
 30 H       -7.4910     6.3190     1.7810 H     1 <1>   0.0800 
 31 H       -7.5450     4.7050     2.4540 H     1 <1>   0.0800 
 32 H       -8.2830    -0.6340    -0.2730 H     1 <1>   0.0800 
 33 H       -9.5880     0.5110    -0.0440 H     1 <1>   0.0800 
 34 H       -8.6010     0.0290     1.3160 H     1 <1>   0.0800 
@<TRIPOS>BOND
  1   1   2  1   
  2   2   3  ar  
  3   2   4  ar  
  4   3   5  1   
  5   3   6  ar  
  6   4   7  ar  
  7   4  21  1   
  8   6   8  ar  
  9   6  22  1   
 10   7   8  ar  
 11   7   9  1   
 12   8  10  1   
 13   9  11  2   
 14   9  12  2   
 15   9  13  1   
 16  10  23  1   
 17  10  24  1   
 18  10  25  1   
 19  13  14  1   
 20  13  15  1   
 21  14  16  2   
 22  14  17  1   
 23  15  18  2   
 24  15  26  1   
 25  16  18  1   
 26  17  19  1   
 27  17  27  1   
 28  17  28  1   
 29  18  20  1   
 30  19  29  1   
 31  19  30  1   
 32  19  31  1   
 33  20  32  1   
 34  20  33  1   
 35  20  34  1   
@<TRIPOS>SUBSTRUCTURE
  1 ****   4 GROUP 4 **** **** 0

# MOE 2024.06 (io_trps.svl 2023.06)
