@<TRIPOS>MOLECULE
4-Chloro-3-(morpholine-4-sulfonyl)-N-(tetrahydro-furan-2-ylmethyl)-benzamide
46 48 1 0 0 
SMALL
USER_CHARGES


@<TRIPOS>ATOM
  1 CL       0.2280    -0.1410     2.6340 Cl    1 <1>  -0.1770 
  2 C        1.6260    -0.9680     1.9980 C.ar  1 <1>   0.1770 
  3 C        1.5270    -2.1560     1.2830 C.ar  1 <1>  -0.0090 
  4 C        2.8480    -0.3640     2.2310 C.ar  1 <1>  -0.1500 
  5 S       -0.0460    -2.9850     0.9290 S.o2  1 <1>   1.4470 
  6 C        2.7110    -2.6970     0.7950 C.ar  1 <1>  -0.1500 
  7 C        4.0060    -0.9340     1.7380 C.ar  1 <1>  -0.1500 
  8 O        0.2400    -4.3860     0.7080 O.2   1 <1>  -0.6500 
  9 O       -1.0960    -2.6480     1.8620 O.2   1 <1>  -0.6500 
 10 N       -0.4840    -2.3430    -0.5780 N.am  1 <1>  -0.8490 
 11 C        3.9630    -2.1190     1.0050 C.ar  1 <1>   0.0860 
 12 C       -1.0830    -1.0010    -0.4840 C.3   1 <1>   0.1960 
 13 C       -1.4090    -3.2350    -1.2970 C.3   1 <1>   0.1960 
 14 C        5.1640    -2.7310     0.4660 C.2   1 <1>   0.5440 
 15 C       -1.4800    -0.4690    -1.8730 C.3   1 <1>   0.1200 
 16 C       -1.8040    -2.6480    -2.6640 C.3   1 <1>   0.1200 
 17 O        5.1240    -3.3470    -0.5800 O.2   1 <1>  -0.5700 
 18 N        6.3590    -2.6280     1.1210 N.am  1 <1>  -0.7300 
 19 O       -2.3430    -1.3650    -2.5140 O.3   1 <1>  -0.5600 
 20 C        7.6360    -3.2480     0.6610 C.3   1 <1>   0.1400 
 21 C        8.1840    -2.5750    -0.6070 C.3   1 <1>   0.2000 
 22 O        9.4830    -3.0140    -0.8330 O.3   1 <1>  -0.5600 
 23 C        8.3210    -1.0590    -0.5320 C.3   1 <1>  -0.1600 
 24 C       10.1330    -2.1340    -1.6910 C.3   1 <1>   0.1200 
 25 C        9.4830    -0.7700    -1.4700 C.3   1 <1>  -0.1600 
 26 H        2.8860     0.5540     2.7920 H     1 <1>   0.1500 
 27 H        2.6680    -3.6100     0.2200 H     1 <1>   0.1500 
 28 H        4.9500    -0.4470     1.9140 H     1 <1>   0.1500 
 29 H       -0.3780    -0.3180    -0.0450 H     1 <1>   0.0800 
 30 H       -1.9610    -1.0240     0.1420 H     1 <1>   0.0800 
 31 H       -2.2980    -3.3970    -0.7090 H     1 <1>   0.0800 
 32 H       -0.9400    -4.1910    -1.4590 H     1 <1>   0.0800 
 33 H       -0.6080    -0.3310    -2.4880 H     1 <1>   0.0800 
 34 H       -1.9930     0.4710    -1.7800 H     1 <1>   0.0800 
 35 H       -2.5500    -3.2640    -3.1320 H     1 <1>   0.0800 
 36 H       -0.9460    -2.5880    -3.3100 H     1 <1>   0.0800 
 37 H        6.3870    -2.2180     2.0550 H     1 <1>   0.3700 
 38 H        7.4660    -4.2900     0.4530 H     1 <1>   0.0800 
 39 H        8.3670    -3.1660     1.4460 H     1 <1>   0.0800 
 40 H        7.5930    -2.8600    -1.4620 H     1 <1>   0.0800 
 41 H        8.5730    -0.7650     0.4720 H     1 <1>   0.0800 
 42 H        7.4120    -0.5690    -0.8310 H     1 <1>   0.0800 
 43 H        9.9840    -2.4790    -2.7000 H     1 <1>   0.0800 
 44 H       11.1820    -2.1320    -1.4510 H     1 <1>   0.0800 
 45 H       10.1790    -0.0760    -1.0320 H     1 <1>   0.0800 
 46 H        9.1380    -0.3760    -2.4100 H     1 <1>   0.0800 
@<TRIPOS>BOND
  1   1   2  1   
  2   2   3  ar  
  3   2   4  ar  
  4   3   5  1   
  5   3   6  ar  
  6   4   7  ar  
  7   4  26  1   
  8   5   8  2   
  9   5   9  2   
 10   5  10  am  
 11   6  11  ar  
 12   6  27  1   
 13   7  11  ar  
 14   7  28  1   
 15  10  12  1   
 16  10  13  1   
 17  11  14  1   
 18  12  15  1   
 19  12  29  1   
 20  12  30  1   
 21  13  16  1   
 22  13  31  1   
 23  13  32  1   
 24  14  17  2   
 25  14  18  am  
 26  15  19  1   
 27  15  33  1   
 28  15  34  1   
 29  16  19  1   
 30  16  35  1   
 31  16  36  1   
 32  18  20  1   
 33  18  37  1   
 34  20  21  1   
 35  20  38  1   
 36  20  39  1   
 37  21  22  1   
 38  21  23  1   
 39  21  40  1   
 40  22  24  1   
 41  23  25  1   
 42  23  41  1   
 43  23  42  1   
 44  24  25  1   
 45  24  43  1   
 46  24  44  1   
 47  25  45  1   
 48  25  46  1   
@<TRIPOS>SUBSTRUCTURE
  1 ****   6 GROUP 4 **** **** 0

# MOE 2024.06 (io_trps.svl 2023.06)
