@<TRIPOS>MOLECULE
N-[2-(4-Ethyl-piperazin-1-yl)-2-oxo-ethyl]-4-fluoro-N-methyl-benzenesulfonamide
46 47 1 0 0 
SMALL
USER_CHARGES


@<TRIPOS>ATOM
  1 S        1.4630     0.0280    -0.1960 S.o2  1 <1>   1.4470 
  2 O        2.8430     0.2580     0.1690 O.2   1 <1>  -0.6500 
  3 O        1.1960    -0.9120    -1.2670 O.2   1 <1>  -0.6500 
  4 N        0.6420    -0.5890     1.1560 N.am  1 <1>  -0.8490 
  5 C        0.6730     1.6290    -0.5260 C.ar  1 <1>  -0.0090 
  6 C        1.1010    -1.9550     1.5350 C.3   1 <1>   0.2570 
  7 C       -0.8160    -0.6130     0.9820 C.3   1 <1>   0.1160 
  8 C        0.7350     2.6520     0.4180 C.ar  1 <1>  -0.1500 
  9 C       -0.0140     1.8650    -1.7160 C.ar  1 <1>  -0.1500 
 10 C        2.5640    -2.1000     2.0060 C.2   1 <1>   0.5690 
 11 C        0.1300     3.8780     0.1910 C.ar  1 <1>  -0.1500 
 12 C       -0.6260     3.0840    -1.9610 C.ar  1 <1>  -0.1500 
 13 O        2.7740    -1.9370     3.1860 O.2   1 <1>  -0.5700 
 14 N        3.6020    -2.4320     1.1600 N.am  1 <1>  -0.6600 
 15 C       -0.5420     4.0700    -0.9990 C.ar  1 <1>   0.1900 
 16 C        4.9980    -2.0690     1.5650 C.3   1 <1>   0.1400 
 17 C        3.4600    -2.8270    -0.2800 C.3   1 <1>   0.1400 
 18 F       -1.1170     5.2200    -1.2210 F     1 <1>  -0.1900 
 19 C        6.0200    -3.1260     1.1180 C.3   1 <1>   0.3430 
 20 C        4.5170    -3.8670    -0.6950 C.3   1 <1>   0.3430 
 21 N        5.9140    -3.4210    -0.3530 N.4   1 <1>  -0.9590 
 22 C        6.9490    -4.4030    -0.7690 C.3   1 <1>   0.3430 
 23 C        7.0800    -4.4020    -2.2880 C.3   1 <1>  -0.2400 
 24 H        0.9100    -2.6340     0.7270 H     1 <1>   0.0800 
 25 H        0.5000    -2.2880     2.3630 H     1 <1>   0.0800 
 26 H       -1.1940     0.3820     0.8210 H     1 <1>   0.0800 
 27 H       -1.2900    -1.0000     1.8690 H     1 <1>   0.0800 
 28 H       -1.0900    -1.2300     0.1410 H     1 <1>   0.0800 
 29 H        1.2660     2.4840     1.3420 H     1 <1>   0.1500 
 30 H       -0.0720     1.0880    -2.4610 H     1 <1>   0.1500 
 31 H        0.1780     4.6690     0.9190 H     1 <1>   0.1500 
 32 H       -1.1560     3.2700    -2.8790 H     1 <1>   0.1500 
 33 H        5.0660    -1.9620     2.6350 H     1 <1>   0.0800 
 34 H        5.2460    -1.1150     1.1340 H     1 <1>   0.0800 
 35 H        3.5750    -1.9560    -0.9000 H     1 <1>   0.0800 
 36 H        2.4860    -3.2390    -0.4680 H     1 <1>   0.0800 
 37 H        5.8480    -4.0260     1.6840 H     1 <1>   0.0800 
 38 H        7.0100    -2.7720     1.3510 H     1 <1>   0.0800 
 39 H        4.4340    -4.0370    -1.7550 H     1 <1>   0.0800 
 40 H        4.3010    -4.7960    -0.1930 H     1 <1>   0.0800 
 41 H        6.0870    -2.5380    -0.8540 H     1 <1>   0.4500 
 42 H        6.6910    -5.3900    -0.4180 H     1 <1>   0.0800 
 43 H        7.9000    -4.1300    -0.3390 H     1 <1>   0.0800 
 44 H        6.1850    -4.7620    -2.7630 H     1 <1>   0.0800 
 45 H        7.8840    -5.0580    -2.5710 H     1 <1>   0.0800 
 46 H        7.3150    -3.4170    -2.6520 H     1 <1>   0.0800 
@<TRIPOS>BOND
  1   1   2  2   
  2   1   3  2   
  3   1   4  am  
  4   1   5  1   
  5   4   6  1   
  6   4   7  1   
  7   5   8  ar  
  8   5   9  ar  
  9   6  10  1   
 10   6  24  1   
 11   6  25  1   
 12   7  26  1   
 13   7  27  1   
 14   7  28  1   
 15   8  11  ar  
 16   8  29  1   
 17   9  12  ar  
 18   9  30  1   
 19  10  13  2   
 20  10  14  am  
 21  11  15  ar  
 22  11  31  1   
 23  12  15  ar  
 24  12  32  1   
 25  14  16  1   
 26  14  17  1   
 27  15  18  1   
 28  16  19  1   
 29  16  33  1   
 30  16  34  1   
 31  17  20  1   
 32  17  35  1   
 33  17  36  1   
 34  19  21  1   
 35  19  37  1   
 36  19  38  1   
 37  20  21  1   
 38  20  39  1   
 39  20  40  1   
 40  21  22  1   
 41  21  41  1   
 42  22  23  1   
 43  22  42  1   
 44  22  43  1   
 45  23  44  1   
 46  23  45  1   
 47  23  46  1   
@<TRIPOS>SUBSTRUCTURE
  1 ****   2 GROUP 4 **** **** 0

# MOE 2024.06 (io_trps.svl 2023.06)
