@<TRIPOS>MOLECULE
3-[3-(4-tert-Butyl-phenyl)-[1,2,4]oxadiazol-5-yl]-N-(tetrahydro-furan-2-ylmethyl
53 55 1 0 0 
SMALL
USER_CHARGES


@<TRIPOS>ATOM
  1 O        0.2710    -0.5100    -0.6520 O.2   1 <1>  -0.5700 
  2 C        0.7700    -1.6060    -0.6510 C.2   1 <1>   0.5690 
  3 N        2.1070    -1.7390    -0.5100 N.am  1 <1>  -0.7300 
  4 C       -0.1050    -2.8360    -0.8140 C.3   1 <1>  -0.0990 
  5 C        2.9470    -2.9590    -0.4280 C.3   1 <1>   0.1400 
  6 C       -1.5630    -2.4960    -1.1610 C.3   1 <1>   0.0200 
  7 C        4.1150    -2.7360     0.5460 C.3   1 <1>   0.2000 
  8 C       -2.3880    -3.7530    -1.3530 C.2   1 <1>   0.2980 
  9 O        4.8110    -1.5790     0.2060 O.3   1 <1>  -0.5600 
 10 C        5.1710    -3.8310     0.5210 C.3   1 <1>  -0.1600 
 11 O       -2.1490    -4.5080    -2.3930 O.3   1 <1>  -0.0190 
 12 N       -3.3090    -4.1610    -0.5830 N.2   1 <1>  -0.5650 
 13 C        6.1100    -1.6260     0.7080 C.3   1 <1>   0.1200 
 14 C        6.4200    -3.0970     0.9780 C.3   1 <1>  -0.1600 
 15 N       -2.9910    -5.4850    -2.2730 N.2   1 <1>  -0.4100 
 16 C       -3.6830    -5.2840    -1.2070 C.2   1 <1>   0.4620 
 17 C       -4.7430    -6.1440    -0.7080 C.ar  1 <1>   0.0540 
 18 C       -5.1020    -7.3150    -1.3720 C.ar  1 <1>  -0.1500 
 19 C       -5.4520    -5.8440     0.4550 C.ar  1 <1>  -0.1500 
 20 C       -6.1090    -8.1380    -0.9010 C.ar  1 <1>  -0.1500 
 21 C       -6.4590    -6.6650     0.9280 C.ar  1 <1>  -0.1500 
 22 C       -6.8120    -7.8330     0.2590 C.ar  1 <1>  -0.1430 
 23 C       -7.9280    -8.7830     0.7460 C.3   1 <1>   0.1430 
 24 C       -8.6070    -8.3050     2.0410 C.3   1 <1>  -0.2400 
 25 C       -9.0150    -8.8920    -0.3330 C.3   1 <1>  -0.2400 
 26 C       -7.3370   -10.1740     1.0190 C.3   1 <1>  -0.2400 
 27 H        2.6510    -0.8720    -0.4230 H     1 <1>   0.3700 
 28 H       -0.0840    -3.3940     0.1040 H     1 <1>   0.0800 
 29 H        0.3100    -3.4470    -1.5940 H     1 <1>   0.0800 
 30 H        3.3380    -3.1800    -1.4050 H     1 <1>   0.0800 
 31 H        2.3610    -3.7970    -0.0970 H     1 <1>   0.0800 
 32 H       -1.6010    -1.9130    -2.0640 H     1 <1>   0.0800 
 33 H       -1.9960    -1.9110    -0.3690 H     1 <1>   0.0800 
 34 H        3.7420    -2.6060     1.5480 H     1 <1>   0.0800 
 35 H        5.3030    -4.1900    -0.4850 H     1 <1>   0.0800 
 36 H        4.9150    -4.6540     1.1640 H     1 <1>   0.0800 
 37 H        6.1440    -1.0430     1.6130 H     1 <1>   0.0800 
 38 H        6.7710    -1.2020    -0.0280 H     1 <1>   0.0800 
 39 H        7.2950    -3.4190     0.4400 H     1 <1>   0.0800 
 40 H        6.5860    -3.2400     2.0310 H     1 <1>   0.0800 
 41 H       -4.5840    -7.5890    -2.2740 H     1 <1>   0.1500 
 42 H       -5.2100    -4.9490     1.0010 H     1 <1>   0.1500 
 43 H       -6.3410    -9.0280    -1.4560 H     1 <1>   0.1500 
 44 H       -6.9580    -6.3650     1.8300 H     1 <1>   0.1500 
 45 H       -7.8900    -8.2370     2.8400 H     1 <1>   0.0800 
 46 H       -9.3750    -8.9940     2.3430 H     1 <1>   0.0800 
 47 H       -9.0630    -7.3420     1.8950 H     1 <1>   0.0800 
 48 H       -9.4110    -7.9170    -0.5560 H     1 <1>   0.0800 
 49 H       -9.8210    -9.5210     0.0010 H     1 <1>   0.0800 
 50 H       -8.6210    -9.3110    -1.2400 H     1 <1>   0.0800 
 51 H       -6.5500   -10.1010     1.7480 H     1 <1>   0.0800 
 52 H       -6.9270   -10.6040     0.1240 H     1 <1>   0.0800 
 53 H       -8.0910   -10.8410     1.3940 H     1 <1>   0.0800 
@<TRIPOS>BOND
  1   1   2  2   
  2   2   3  am  
  3   2   4  1   
  4   3   5  1   
  5   3  27  1   
  6   4   6  1   
  7   4  28  1   
  8   4  29  1   
  9   5   7  1   
 10   5  30  1   
 11   5  31  1   
 12   6   8  1   
 13   6  32  1   
 14   6  33  1   
 15   7   9  1   
 16   7  10  1   
 17   7  34  1   
 18   8  11  1   
 19   8  12  2   
 20   9  13  1   
 21  10  14  1   
 22  10  35  1   
 23  10  36  1   
 24  11  15  1   
 25  12  16  1   
 26  13  14  1   
 27  13  37  1   
 28  13  38  1   
 29  14  39  1   
 30  14  40  1   
 31  15  16  2   
 32  16  17  1   
 33  17  18  ar  
 34  17  19  ar  
 35  18  20  ar  
 36  18  41  1   
 37  19  21  ar  
 38  19  42  1   
 39  20  22  ar  
 40  20  43  1   
 41  21  22  ar  
 42  21  44  1   
 43  22  23  1   
 44  23  24  1   
 45  23  25  1   
 46  23  26  1   
 47  24  45  1   
 48  24  46  1   
 49  24  47  1   
 50  25  48  1   
 51  25  49  1   
 52  25  50  1   
 53  26  51  1   
 54  26  52  1   
 55  26  53  1   
@<TRIPOS>SUBSTRUCTURE
  1 ****  12 GROUP 4 **** **** 0

# MOE 2024.06 (io_trps.svl 2023.06)
