@<TRIPOS>MOLECULE
3-(5-Bromo-2-hydroxy-phenyl)-N-(2-morpholin-4-yl-ethyl)-3-phenyl-propionamide
53 55 1 0 0 
SMALL
USER_CHARGES


@<TRIPOS>ATOM
  1 BR       0.9990     0.7770     1.3560 Br    1 <1>  -0.1110 
  2 C        2.1770    -0.7370     1.1940 C.ar  1 <1>   0.1110 
  3 C        3.4610    -0.5310     0.7250 C.ar  1 <1>  -0.1500 
  4 C        1.7050    -1.9850     1.5500 C.ar  1 <1>  -0.1500 
  5 C        4.3260    -1.6130     0.5970 C.ar  1 <1>  -0.1440 
  6 C        2.5590    -3.0650     1.4310 C.ar  1 <1>  -0.1500 
  7 C        3.8530    -2.8770     0.9600 C.ar  1 <1>   0.0830 
  8 C        5.7620    -1.4520     0.0780 C.3   1 <1>   0.2070 
  9 O        4.6510    -3.9540     0.8600 O.3   1 <1>  -0.5320 
 10 C        6.3380    -0.0430     0.3020 C.ar  1 <1>  -0.1430 
 11 C        5.8550    -1.9030    -1.3880 C.3   1 <1>  -0.0990 
 12 C        7.1410     0.1850     1.4120 C.ar  1 <1>  -0.1500 
 13 C        6.0760     1.0180    -0.5580 C.ar  1 <1>  -0.1500 
 14 C        7.2900    -1.9130    -1.8560 C.2   1 <1>   0.5690 
 15 C        7.6710     1.4400     1.6560 C.ar  1 <1>  -0.1500 
 16 C        6.6190     2.2700    -0.3240 C.ar  1 <1>  -0.1500 
 17 O        7.9700    -2.8860    -1.6400 O.2   1 <1>  -0.5700 
 18 N        7.7990    -0.8080    -2.4670 N.am  1 <1>  -0.7300 
 19 C        7.4180     2.4820     0.7840 C.ar  1 <1>  -0.1500 
 20 C        9.1520    -0.5880    -3.0740 C.3   1 <1>   0.1400 
 21 C       10.3080    -1.4100    -2.4550 C.3   1 <1>   0.3430 
 22 N       10.2410    -1.4700    -0.9640 N.4   1 <1>  -0.9590 
 23 C       10.2920    -0.1490    -0.2470 C.3   1 <1>   0.3430 
 24 C       11.1430    -2.4990    -0.3630 C.3   1 <1>   0.3430 
 25 C       10.6760    -0.3120     1.2400 C.3   1 <1>   0.1200 
 26 C       10.8690    -2.6650     1.1510 C.3   1 <1>   0.1200 
 27 O       10.2320    -1.5480     1.7200 O.3   1 <1>  -0.5600 
 28 H        3.7540     0.4710     0.4770 H     1 <1>   0.1500 
 29 H        0.6990    -2.1010     1.9110 H     1 <1>   0.1500 
 30 H        2.2150    -4.0460     1.7050 H     1 <1>   0.1500 
 31 H        6.3800    -2.1280     0.6450 H     1 <1>   0.0800 
 32 H        4.2230    -4.7760     1.1630 H     1 <1>   0.4500 
 33 H        5.2550    -1.2790    -2.0210 H     1 <1>   0.0800 
 34 H        5.4730    -2.9040    -1.4750 H     1 <1>   0.0800 
 35 H        7.3500    -0.6130     2.1060 H     1 <1>   0.1500 
 36 H        5.4300     0.8900    -1.4080 H     1 <1>   0.1500 
 37 H        8.2700     1.6070     2.5350 H     1 <1>   0.1500 
 38 H        6.4060     3.0860    -0.9940 H     1 <1>   0.1500 
 39 H        7.1630    -0.0110    -2.5690 H     1 <1>   0.3700 
 40 H        7.8270     3.4600     0.9760 H     1 <1>   0.1500 
 41 H        9.3970     0.4560    -2.9840 H     1 <1>   0.0800 
 42 H        9.0980    -0.8100    -4.1260 H     1 <1>   0.0800 
 43 H       11.2530    -1.0010    -2.7700 H     1 <1>   0.0800 
 44 H       10.2380    -2.4130    -2.8440 H     1 <1>   0.0800 
 45 H        9.2880    -1.8480    -0.7830 H     1 <1>   0.4500 
 46 H        9.3240     0.3230    -0.3060 H     1 <1>   0.0800 
 47 H       11.0050     0.5060    -0.7180 H     1 <1>   0.0800 
 48 H       12.1700    -2.2040    -0.5020 H     1 <1>   0.0800 
 49 H       11.0040    -3.4490    -0.8530 H     1 <1>   0.0800 
 50 H       10.2250     0.4630     1.8320 H     1 <1>   0.0800 
 51 H       11.7430    -0.2560     1.3690 H     1 <1>   0.0800 
 52 H       11.7900    -2.8380     1.6800 H     1 <1>   0.0800 
 53 H       10.2270    -3.5140     1.3140 H     1 <1>   0.0800 
@<TRIPOS>BOND
  1   1   2  1   
  2   2   3  ar  
  3   2   4  ar  
  4   3   5  ar  
  5   3  28  1   
  6   4   6  ar  
  7   4  29  1   
  8   5   7  ar  
  9   5   8  1   
 10   6   7  ar  
 11   6  30  1   
 12   7   9  1   
 13   8  10  1   
 14   8  11  1   
 15   8  31  1   
 16   9  32  1   
 17  10  12  ar  
 18  10  13  ar  
 19  11  14  1   
 20  11  33  1   
 21  11  34  1   
 22  12  15  ar  
 23  12  35  1   
 24  13  16  ar  
 25  13  36  1   
 26  14  17  2   
 27  14  18  am  
 28  15  19  ar  
 29  15  37  1   
 30  16  19  ar  
 31  16  38  1   
 32  18  20  1   
 33  18  39  1   
 34  19  40  1   
 35  20  21  1   
 36  20  41  1   
 37  20  42  1   
 38  21  22  1   
 39  21  43  1   
 40  21  44  1   
 41  22  23  1   
 42  22  24  1   
 43  22  45  1   
 44  23  25  1   
 45  23  46  1   
 46  23  47  1   
 47  24  26  1   
 48  24  48  1   
 49  24  49  1   
 50  25  27  1   
 51  25  50  1   
 52  25  51  1   
 53  26  27  1   
 54  26  52  1   
 55  26  53  1   
@<TRIPOS>SUBSTRUCTURE
  1 ****  10 GROUP 4 **** **** 0

# MOE 2024.06 (io_trps.svl 2023.06)
