@<TRIPOS>MOLECULE
N-Isopropyl-4-[3-(4-methoxy-phenyl)-[1,2,4]oxadiazol-5-yl]-butyramide
43 44 1 0 0 
SMALL
USER_CHARGES


@<TRIPOS>ATOM
  1 O       -0.2310    -1.6460    -0.3550 O.2   1 <1>  -0.5700 
  2 C       -1.3540    -2.0480    -0.1930 C.2   1 <1>   0.5690 
  3 N       -1.7350    -3.2310    -0.7310 N.am  1 <1>  -0.7300 
  4 C       -2.3250    -1.2040     0.6140 C.3   1 <1>  -0.0990 
  5 C       -3.0430    -3.9010    -0.6900 C.3   1 <1>   0.2200 
  6 C       -3.2510    -0.3750    -0.2990 C.3   1 <1>  -0.1600 
  7 C       -2.8810    -5.2280     0.0410 C.3   1 <1>  -0.2400 
  8 C       -3.5220    -4.1100    -2.1220 C.3   1 <1>  -0.2400 
  9 C       -4.5420     0.0780     0.4030 C.3   1 <1>   0.0200 
 10 C       -5.4120    -1.1150     0.7610 C.2   1 <1>   0.2980 
 11 O       -5.4850    -1.4940     2.0090 O.3   1 <1>  -0.0190 
 12 N       -6.0640    -1.8230    -0.0640 N.2   1 <1>  -0.5650 
 13 N       -6.2400    -2.5470     1.9730 N.2   1 <1>  -0.4100 
 14 C       -6.5860    -2.7460     0.7500 C.2   1 <1>   0.4620 
 15 C       -7.4130    -3.8390     0.2670 C.ar  1 <1>   0.0540 
 16 C       -7.7450    -3.9700    -1.0830 C.ar  1 <1>  -0.1500 
 17 C       -7.9060    -4.8130     1.1390 C.ar  1 <1>  -0.1500 
 18 C       -8.5240    -5.0170    -1.5380 C.ar  1 <1>  -0.1500 
 19 C       -8.6860    -5.8640     0.6920 C.ar  1 <1>  -0.1500 
 20 C       -9.0020    -5.9730    -0.6590 C.ar  1 <1>   0.0830 
 21 O       -9.7590    -6.9670    -1.1820 O.3   1 <1>  -0.3630 
 22 C      -10.3120    -7.9770    -0.3690 C.3   1 <1>   0.0400 
 23 H       -1.0090    -3.7250    -1.2510 H     1 <1>   0.3700 
 24 H       -1.7620    -0.5430     1.2470 H     1 <1>   0.0800 
 25 H       -2.8800    -1.8590     1.2570 H     1 <1>   0.0800 
 26 H       -3.7620    -3.2970    -0.1670 H     1 <1>   0.0800 
 27 H       -3.5240    -0.9580    -1.1620 H     1 <1>   0.0800 
 28 H       -2.7100     0.4850    -0.6560 H     1 <1>   0.0800 
 29 H       -2.1780    -5.8620    -0.4690 H     1 <1>   0.0800 
 30 H       -3.8280    -5.7340     0.0910 H     1 <1>   0.0800 
 31 H       -2.5390    -5.0540     1.0460 H     1 <1>   0.0800 
 32 H       -2.8330    -4.7280    -2.6690 H     1 <1>   0.0800 
 33 H       -3.6230    -3.1620    -2.6180 H     1 <1>   0.0800 
 34 H       -4.4840    -4.5900    -2.1160 H     1 <1>   0.0800 
 35 H       -5.0990     0.7150    -0.2600 H     1 <1>   0.0800 
 36 H       -4.3090     0.6410     1.2890 H     1 <1>   0.0800 
 37 H       -7.3880    -3.2400    -1.7890 H     1 <1>   0.1500 
 38 H       -7.6730    -4.7460     2.1870 H     1 <1>   0.1500 
 39 H       -8.7710    -5.1010    -2.5820 H     1 <1>   0.1500 
 40 H       -9.0390    -6.5850     1.4050 H     1 <1>   0.1500 
 41 H      -10.8740    -8.6420    -0.9990 H     1 <1>   0.0800 
 42 H      -10.9640    -7.5230     0.3570 H     1 <1>   0.0800 
 43 H       -9.5150    -8.5150     0.1120 H     1 <1>   0.0800 
@<TRIPOS>BOND
  1   1   2  2   
  2   2   3  am  
  3   2   4  1   
  4   3   5  1   
  5   3  23  1   
  6   4   6  1   
  7   4  24  1   
  8   4  25  1   
  9   5   7  1   
 10   5   8  1   
 11   5  26  1   
 12   6   9  1   
 13   6  27  1   
 14   6  28  1   
 15   7  29  1   
 16   7  30  1   
 17   7  31  1   
 18   8  32  1   
 19   8  33  1   
 20   8  34  1   
 21   9  10  1   
 22   9  35  1   
 23   9  36  1   
 24  10  11  1   
 25  10  12  2   
 26  11  13  1   
 27  12  14  1   
 28  13  14  2   
 29  14  15  1   
 30  15  16  ar  
 31  15  17  ar  
 32  16  18  ar  
 33  16  37  1   
 34  17  19  ar  
 35  17  38  1   
 36  18  20  ar  
 37  18  39  1   
 38  19  20  ar  
 39  19  40  1   
 40  20  21  1   
 41  21  22  1   
 42  22  41  1   
 43  22  42  1   
 44  22  43  1   
@<TRIPOS>SUBSTRUCTURE
  1 ****  14 GROUP 4 **** **** 0

# MOE 2024.06 (io_trps.svl 2023.06)
