@<TRIPOS>MOLECULE
Morpholin-4-yl-{2-[3-(3,4,5-trimethoxy-phenyl)-[1,2,4]oxadiazol-5-yl]-phenyl}-me
54 57 1 0 0 
SMALL
USER_CHARGES


@<TRIPOS>ATOM
  1 O        0.2140     1.3770     2.4080 O.2   1 <1>  -0.5700 
  2 C        0.3900     1.7460     1.2640 C.2   1 <1>   0.5440 
  3 N        1.2700     1.0570     0.4580 N.am  1 <1>  -0.6600 
  4 C       -0.3320     2.8980     0.7800 C.ar  1 <1>   0.0860 
  5 C        1.5640     1.4010    -0.9650 C.3   1 <1>   0.1400 
  6 C        1.9350    -0.2030     0.9070 C.3   1 <1>   0.1400 
  7 C       -1.6150     2.7920     0.2130 C.ar  1 <1>   0.0530 
  8 C        0.2580     4.1560     0.8940 C.ar  1 <1>  -0.1500 
  9 C        3.0750     1.3170    -1.2400 C.3   1 <1>   0.1200 
 10 C        3.4230    -0.2000     0.5180 C.3   1 <1>   0.1200 
 11 C       -2.2980     1.5290     0.0410 C.2   1 <1>   0.4250 
 12 C       -2.2500     3.9630    -0.2030 C.ar  1 <1>  -0.1500 
 13 C       -0.3860     5.2990     0.4650 C.ar  1 <1>  -0.1500 
 14 O        3.5810     0.0730    -0.8470 O.3   1 <1>  -0.5600 
 15 O       -1.6650     0.4320    -0.2630 O.3   1 <1>  -0.0190 
 16 N       -3.5610     1.3080     0.1030 N.2   1 <1>  -0.5650 
 17 C       -1.6500     5.2010    -0.0850 C.ar  1 <1>  -0.1500 
 18 N       -2.4860    -0.5380    -0.3980 N.2   1 <1>  -0.4100 
 19 C       -3.6390    -0.0110    -0.1670 C.2   1 <1>   0.4620 
 20 C       -4.9060    -0.7240    -0.1940 C.ar  1 <1>   0.0540 
 21 C       -4.9710    -2.0740    -0.5410 C.ar  1 <1>  -0.1500 
 22 C       -6.1090    -0.0920     0.1200 C.ar  1 <1>  -0.1500 
 23 C       -6.1650    -2.7720    -0.5750 C.ar  1 <1>   0.0830 
 24 C       -7.3160    -0.7670     0.0920 C.ar  1 <1>   0.0830 
 25 O       -6.0770    -4.0810    -0.9380 O.3   1 <1>  -0.3630 
 26 C       -7.3570    -2.1260    -0.2310 C.ar  1 <1>   0.0830 
 27 O       -8.4290    -0.0590     0.4070 O.3   1 <1>  -0.3630 
 28 C       -7.0300    -4.6200    -1.8290 C.3   1 <1>   0.0400 
 29 O       -8.5340    -2.8050    -0.1820 O.3   1 <1>  -0.3630 
 30 C       -9.3640     0.1390    -0.6310 C.3   1 <1>   0.0400 
 31 C       -8.9740    -3.1500     1.1110 C.3   1 <1>   0.0400 
 32 H        1.2200     2.3920    -1.2000 H     1 <1>   0.0800 
 33 H        1.0510     0.7070    -1.6080 H     1 <1>   0.0800 
 34 H        1.4480    -1.0430     0.4450 H     1 <1>   0.0800 
 35 H        1.8510    -0.3180     1.9740 H     1 <1>   0.0800 
 36 H        1.2370     4.2320     1.3360 H     1 <1>   0.1500 
 37 H        3.6020     2.0870    -0.7050 H     1 <1>   0.0800 
 38 H        3.2680     1.4310    -2.2920 H     1 <1>   0.0800 
 39 H        3.8580    -1.1640     0.7130 H     1 <1>   0.0800 
 40 H        3.9580     0.5420     1.0830 H     1 <1>   0.0800 
 41 H       -3.2380     3.9000    -0.6280 H     1 <1>   0.1500 
 42 H        0.0870     6.2620     0.5640 H     1 <1>   0.1500 
 43 H       -2.1640     6.0880    -0.4160 H     1 <1>   0.1500 
 44 H       -4.0680    -2.6010    -0.7940 H     1 <1>   0.1500 
 45 H       -6.1130     0.9480     0.3930 H     1 <1>   0.1500 
 46 H       -7.2910    -3.8760    -2.5610 H     1 <1>   0.0800 
 47 H       -6.5910    -5.4750    -2.3120 H     1 <1>   0.0800 
 48 H       -7.8960    -4.9250    -1.2710 H     1 <1>   0.0800 
 49 H       -8.8570     0.5580    -1.4820 H     1 <1>   0.0800 
 50 H      -10.1170     0.8210    -0.2780 H     1 <1>   0.0800 
 51 H       -9.8160    -0.8010    -0.8890 H     1 <1>   0.0800 
 52 H       -9.8880    -3.7070     1.0190 H     1 <1>   0.0800 
 53 H       -8.2190    -3.7530     1.5840 H     1 <1>   0.0800 
 54 H       -9.1450    -2.2510     1.6760 H     1 <1>   0.0800 
@<TRIPOS>BOND
  1   1   2  2   
  2   2   3  am  
  3   2   4  1   
  4   3   5  1   
  5   3   6  1   
  6   4   7  ar  
  7   4   8  ar  
  8   5   9  1   
  9   5  32  1   
 10   5  33  1   
 11   6  10  1   
 12   6  34  1   
 13   6  35  1   
 14   7  11  1   
 15   7  12  ar  
 16   8  13  ar  
 17   8  36  1   
 18   9  14  1   
 19   9  37  1   
 20   9  38  1   
 21  10  14  1   
 22  10  39  1   
 23  10  40  1   
 24  11  15  1   
 25  11  16  2   
 26  12  17  ar  
 27  12  41  1   
 28  13  17  ar  
 29  13  42  1   
 30  15  18  1   
 31  16  19  1   
 32  17  43  1   
 33  18  19  2   
 34  19  20  1   
 35  20  21  ar  
 36  20  22  ar  
 37  21  23  ar  
 38  21  44  1   
 39  22  24  ar  
 40  22  45  1   
 41  23  25  1   
 42  23  26  ar  
 43  24  26  ar  
 44  24  27  1   
 45  25  28  1   
 46  26  29  1   
 47  27  30  1   
 48  28  46  1   
 49  28  47  1   
 50  28  48  1   
 51  29  31  1   
 52  30  49  1   
 53  30  50  1   
 54  30  51  1   
 55  31  52  1   
 56  31  53  1   
 57  31  54  1   
@<TRIPOS>SUBSTRUCTURE
  1 ****  19 GROUP 4 **** **** 0

# MOE 2024.06 (io_trps.svl 2023.06)
