@<TRIPOS>MOLECULE
N-(2-Hydroxy-6-methyl-quinolin-3-ylmethyl)-3,4-dimethoxy-N-(2-methoxy-ethyl)-ben
56 58 1 0 0 
SMALL
USER_CHARGES


@<TRIPOS>ATOM
  1 O        0.2020    -1.2430    -2.4100 O.2   1 <1>  -0.5700 
  2 C        1.0330    -1.3660    -1.5280 C.2   1 <1>   0.5440 
  3 N        1.6720    -0.2370    -1.0560 N.am  1 <1>  -0.6600 
  4 C        1.3080    -2.6900    -1.0030 C.ar  1 <1>   0.0860 
  5 C        1.5510     1.0620    -1.7840 C.3   1 <1>   0.2780 
  6 C        2.3070    -0.1730     0.3020 C.3   1 <1>   0.1400 
  7 C        2.6050    -3.1850    -0.9050 C.ar  1 <1>  -0.1500 
  8 C        0.2740    -3.5240    -0.5860 C.ar  1 <1>  -0.1500 
  9 C        0.6000     1.9950    -1.0550 C.2   1 <1>  -0.1240 
 10 C        3.8000     0.1490     0.2160 C.3   1 <1>   0.1200 
 11 C        2.8820    -4.4420    -0.4000 C.ar  1 <1>   0.0830 
 12 C        0.5240    -4.7820    -0.0700 C.ar  1 <1>  -0.1500 
 13 C        1.1640     3.0940    -0.3320 C.2   1 <1>   0.6160 
 14 C       -0.7430     1.8040    -1.0820 C.2   1 <1>  -0.1780 
 15 O        4.3540    -0.0170     1.4830 O.3   1 <1>  -0.5600 
 16 O        4.2080    -4.7630    -0.3830 O.3   1 <1>  -0.3620 
 17 C        1.8280    -5.2600     0.0440 C.ar  1 <1>   0.0830 
 18 O        2.3580     3.3260    -0.2710 O.2   1 <1>  -0.5700 
 19 N        0.3130     3.9290     0.3260 N.am  1 <1>  -0.5470 
 20 C       -1.6260     2.6920    -0.3890 C.ar  1 <1>   0.0280 
 21 C        5.7130     0.2710     1.5430 C.3   1 <1>   0.0400 
 22 C        4.6510    -6.0990    -0.4660 C.3   1 <1>   0.0400 
 23 O        2.0870    -6.4820     0.5840 O.3   1 <1>  -0.3630 
 24 C       -1.0690     3.7680     0.3230 C.ar  1 <1>   0.1170 
 25 C       -3.0120     2.5330    -0.3900 C.ar  1 <1>  -0.1500 
 26 C        1.0820    -7.2930     1.1520 C.3   1 <1>   0.0400 
 27 C       -1.9030     4.6470     1.0070 C.ar  1 <1>  -0.1500 
 28 C       -3.8330     3.4100     0.2910 C.ar  1 <1>  -0.1430 
 29 C       -3.2700     4.4710     0.9910 C.ar  1 <1>  -0.1500 
 30 C       -5.3400     3.2340     0.2870 C.3   1 <1>  -0.0970 
 31 H        1.1760     0.8940    -2.7790 H     1 <1>   0.0800 
 32 H        2.5240     1.5070    -1.8930 H     1 <1>   0.0800 
 33 H        2.1860    -1.1110     0.8140 H     1 <1>   0.0800 
 34 H        1.8200     0.5830     0.8910 H     1 <1>   0.0800 
 35 H        3.4240    -2.5750    -1.2380 H     1 <1>   0.1500 
 36 H       -0.7390    -3.1700    -0.6720 H     1 <1>   0.1500 
 37 H        3.9490     1.1690    -0.0920 H     1 <1>   0.0800 
 38 H        4.2930    -0.5260    -0.4600 H     1 <1>   0.0800 
 39 H       -0.3160    -5.3740     0.2370 H     1 <1>   0.1500 
 40 H       -1.1810     0.9790    -1.6180 H     1 <1>   0.1500 
 41 H        0.7540     4.6950     0.8310 H     1 <1>   0.3700 
 42 H        6.0430     0.1160     2.5550 H     1 <1>   0.0800 
 43 H        5.8710     1.2990     1.2640 H     1 <1>   0.0800 
 44 H        6.2460    -0.3890     0.8820 H     1 <1>   0.0800 
 45 H        5.6850    -6.0920    -0.7570 H     1 <1>   0.0800 
 46 H        4.0630    -6.6200    -1.2020 H     1 <1>   0.0800 
 47 H        4.5490    -6.5590     0.5000 H     1 <1>   0.0800 
 48 H       -3.4340     1.7080    -0.9350 H     1 <1>   0.1500 
 49 H        1.5500    -8.1740     1.5520 H     1 <1>   0.0800 
 50 H        0.3800    -7.5690     0.3850 H     1 <1>   0.0800 
 51 H        0.5970    -6.7470     1.9430 H     1 <1>   0.0800 
 52 H       -1.4740     5.4690     1.5500 H     1 <1>   0.1500 
 53 H       -3.9060     5.1570     1.5230 H     1 <1>   0.1500 
 54 H       -5.6260     2.3680    -0.2820 H     1 <1>   0.0800 
 55 H       -5.8080     4.0990    -0.1480 H     1 <1>   0.0800 
 56 H       -5.6980     3.1140     1.2940 H     1 <1>   0.0800 
@<TRIPOS>BOND
  1   1   2  2   
  2   2   3  am  
  3   2   4  1   
  4   3   5  1   
  5   3   6  1   
  6   4   7  ar  
  7   4   8  ar  
  8   5   9  1   
  9   5  31  1   
 10   5  32  1   
 11   6  10  1   
 12   6  33  1   
 13   6  34  1   
 14   7  11  ar  
 15   7  35  1   
 16   8  12  ar  
 17   8  36  1   
 18   9  13  1   
 19   9  14  2   
 20  10  15  1   
 21  10  37  1   
 22  10  38  1   
 23  11  16  1   
 24  11  17  ar  
 25  12  17  ar  
 26  12  39  1   
 27  13  18  2   
 28  13  19  am  
 29  14  20  1   
 30  14  40  1   
 31  15  21  1   
 32  16  22  1   
 33  17  23  1   
 34  19  24  1   
 35  19  41  1   
 36  20  24  ar  
 37  20  25  ar  
 38  21  42  1   
 39  21  43  1   
 40  21  44  1   
 41  22  45  1   
 42  22  46  1   
 43  22  47  1   
 44  23  26  1   
 45  24  27  ar  
 46  25  28  ar  
 47  25  48  1   
 48  26  49  1   
 49  26  50  1   
 50  26  51  1   
 51  27  29  ar  
 52  27  52  1   
 53  28  29  ar  
 54  28  30  1   
 55  29  53  1   
 56  30  54  1   
 57  30  55  1   
 58  30  56  1   
@<TRIPOS>SUBSTRUCTURE
  1 ****   3 GROUP 4 **** **** 0

# MOE 2024.06 (io_trps.svl 2023.06)
