@<TRIPOS>MOLECULE
[4-(Azepane-1-sulfonyl)-piperazin-1-yl]-m-tolyl-methanone
52 54 1 0 0 
SMALL
USER_CHARGES


@<TRIPOS>ATOM
  1 S       -0.1960     0.1000    -1.3090 S.o2  1 <1>   1.5760 
  2 O        0.2410    -0.8870    -2.2710 O.2   1 <1>  -0.6500 
  3 O       -0.7680     1.3520    -1.7510 O.2   1 <1>  -0.6500 
  4 N        1.0810     0.4040    -0.2460 N.am  1 <1>  -0.8490 
  5 N       -1.2980    -0.6240    -0.2590 N.am  1 <1>  -0.8490 
  6 C        1.9990     1.3810    -0.8330 C.3   1 <1>   0.1960 
  7 C        1.7390    -0.8460     0.1520 C.3   1 <1>   0.1960 
  8 C       -1.7980     0.3320     0.7460 C.3   1 <1>   0.1960 
  9 C       -2.4240    -1.1990    -1.0070 C.3   1 <1>   0.1960 
 10 C        3.0810     1.8690     0.1390 C.3   1 <1>  -0.1600 
 11 C        2.4140    -0.6830     1.5170 C.3   1 <1>  -0.1600 
 12 C       -2.7520    -0.3480     1.7400 C.3   1 <1>   0.1400 
 13 C       -3.4170    -1.9220    -0.0800 C.3   1 <1>   0.1400 
 14 C        4.1940     0.8380     0.3800 C.3   1 <1>  -0.1600 
 15 C        3.8700    -0.1910     1.4700 C.3   1 <1>  -0.1600 
 16 N       -3.8780    -1.0220     1.0230 N.am  1 <1>  -0.6600 
 17 C       -5.1920    -0.6450     1.2080 C.2   1 <1>   0.5440 
 18 O       -5.4300     0.3600     1.8500 O.2   1 <1>  -0.5700 
 19 C       -6.2920    -1.4060     0.6440 C.ar  1 <1>   0.0860 
 20 C       -6.4100    -2.7810     0.8530 C.ar  1 <1>  -0.1500 
 21 C       -7.2680    -0.7840    -0.1310 C.ar  1 <1>  -0.1500 
 22 C       -7.4450    -3.5140     0.2970 C.ar  1 <1>  -0.1440 
 23 C       -8.3050    -1.5040    -0.6920 C.ar  1 <1>  -0.1500 
 24 C       -8.3910    -2.8690    -0.4810 C.ar  1 <1>  -0.1500 
 25 C       -7.5530    -5.0090     0.5330 C.3   1 <1>  -0.0970 
 26 H        1.4330     2.2470    -1.1340 H     1 <1>   0.0800 
 27 H        2.4540     0.9690    -1.7200 H     1 <1>   0.0800 
 28 H        2.4350    -1.1760    -0.6010 H     1 <1>   0.0800 
 29 H        0.9950    -1.6180     0.2600 H     1 <1>   0.0800 
 30 H       -2.3160     1.1450     0.2640 H     1 <1>   0.0800 
 31 H       -0.9700     0.7470     1.2950 H     1 <1>   0.0800 
 32 H       -2.0510    -1.9060    -1.7280 H     1 <1>   0.0800 
 33 H       -2.9420    -0.4210    -1.5440 H     1 <1>   0.0800 
 34 H        2.6350     2.1870     1.0650 H     1 <1>   0.0800 
 35 H        3.5340     2.7360    -0.3070 H     1 <1>   0.0800 
 36 H        2.4080    -1.6370     2.0120 H     1 <1>   0.0800 
 37 H        1.8200    -0.0170     2.1180 H     1 <1>   0.0800 
 38 H       -3.1240     0.3880     2.4310 H     1 <1>   0.0800 
 39 H       -2.2060    -1.0810     2.3060 H     1 <1>   0.0800 
 40 H       -2.9360    -2.7840     0.3470 H     1 <1>   0.0800 
 41 H       -4.2490    -2.2620    -0.6700 H     1 <1>   0.0800 
 42 H        5.0920     1.3560     0.6700 H     1 <1>   0.0800 
 43 H        4.4120     0.3290    -0.5430 H     1 <1>   0.0800 
 44 H        4.5210    -1.0380     1.3330 H     1 <1>   0.0800 
 45 H        4.1060     0.2330     2.4310 H     1 <1>   0.0800 
 46 H       -5.6740    -3.2700     1.4660 H     1 <1>   0.1500 
 47 H       -7.2040     0.2790    -0.2880 H     1 <1>   0.1500 
 48 H       -9.0480    -1.0050    -1.2900 H     1 <1>   0.1500 
 49 H       -9.2010    -3.4260    -0.9210 H     1 <1>   0.1500 
 50 H       -6.8950    -5.3230     1.3230 H     1 <1>   0.0800 
 51 H       -7.2940    -5.5410    -0.3650 H     1 <1>   0.0800 
 52 H       -8.5600    -5.2660     0.8090 H     1 <1>   0.0800 
@<TRIPOS>BOND
  1   1   2  2   
  2   1   3  2   
  3   1   4  am  
  4   1   5  am  
  5   4   6  1   
  6   4   7  1   
  7   5   8  1   
  8   5   9  1   
  9   6  10  1   
 10   6  26  1   
 11   6  27  1   
 12   7  11  1   
 13   7  28  1   
 14   7  29  1   
 15   8  12  1   
 16   8  30  1   
 17   8  31  1   
 18   9  13  1   
 19   9  32  1   
 20   9  33  1   
 21  10  14  1   
 22  10  34  1   
 23  10  35  1   
 24  11  15  1   
 25  11  36  1   
 26  11  37  1   
 27  12  16  1   
 28  12  38  1   
 29  12  39  1   
 30  13  16  1   
 31  13  40  1   
 32  13  41  1   
 33  14  15  1   
 34  14  42  1   
 35  14  43  1   
 36  15  44  1   
 37  15  45  1   
 38  16  17  am  
 39  17  18  2   
 40  17  19  1   
 41  19  20  ar  
 42  19  21  ar  
 43  20  22  ar  
 44  20  46  1   
 45  21  23  ar  
 46  21  47  1   
 47  22  24  ar  
 48  22  25  1   
 49  23  24  ar  
 50  23  48  1   
 51  24  49  1   
 52  25  50  1   
 53  25  51  1   
 54  25  52  1   
@<TRIPOS>SUBSTRUCTURE
  1 ****   5 GROUP 4 **** **** 0

# MOE 2024.06 (io_trps.svl 2023.06)
