@<TRIPOS>MOLECULE
N-Cyclopentyl-4-(2-morpholin-4-yl-2-oxo-ethoxy)-benzenesulfonamide
49 51 1 0 0 
SMALL
USER_CHARGES


@<TRIPOS>ATOM
  1 S       -0.0420    -0.7670     0.6640 S.o2  1 <1>   1.4470 
  2 O       -0.2390    -2.1280     0.2250 O.2   1 <1>  -0.6500 
  3 O       -0.2330    -0.4130     2.0520 O.2   1 <1>  -0.6500 
  4 N       -1.1410     0.1000    -0.2550 N.am  1 <1>  -0.9140 
  5 C        1.5550    -0.1370     0.0870 C.ar  1 <1>  -0.0090 
  6 C       -2.4370     0.2410     0.3760 C.3   1 <1>   0.2760 
  7 C        1.8040     1.2300     0.0370 C.ar  1 <1>  -0.1500 
  8 C        2.5730    -0.9990    -0.3070 C.ar  1 <1>  -0.1500 
  9 C       -3.4920     0.3920    -0.7140 C.3   1 <1>  -0.1600 
 10 C       -2.5090     1.5820     1.1020 C.3   1 <1>  -0.1600 
 11 C        3.0230     1.7280    -0.3880 C.ar  1 <1>  -0.1500 
 12 C        3.7950    -0.5120    -0.7340 C.ar  1 <1>  -0.1500 
 13 C       -3.4430     1.8610    -1.1480 C.3   1 <1>  -0.1600 
 14 C       -2.8240     2.6280     0.0260 C.3   1 <1>  -0.1600 
 15 C        4.0310     0.8510    -0.7730 C.ar  1 <1>   0.0830 
 16 O        5.2570     1.2460    -1.1860 O.3   1 <1>  -0.3620 
 17 C        5.6620     2.6040    -1.0940 C.3   1 <1>   0.1810 
 18 C        7.1390     2.7700    -1.4390 C.2   1 <1>   0.5690 
 19 O        7.4100     3.5570    -2.3170 O.2   1 <1>  -0.5700 
 20 N        8.1210     2.0830    -0.7650 N.am  1 <1>  -0.6600 
 21 C        9.5580     2.1910    -1.1590 C.3   1 <1>   0.1400 
 22 C        7.8920     1.1140     0.3510 C.3   1 <1>   0.1400 
 23 C       10.4530     2.3720     0.0770 C.3   1 <1>   0.1200 
 24 C        8.8910     1.3510     1.4970 C.3   1 <1>   0.1200 
 25 O       10.2050     1.3670     1.0180 O.3   1 <1>  -0.5600 
 26 H       -1.2850    -0.5070    -1.0570 H     1 <1>   0.4200 
 27 H       -2.6550    -0.5960     1.0220 H     1 <1>   0.0800 
 28 H        1.0250     1.9120     0.3360 H     1 <1>   0.1500 
 29 H        2.4070    -2.0630    -0.2800 H     1 <1>   0.1500 
 30 H       -4.4560     0.1950    -0.2780 H     1 <1>   0.0800 
 31 H       -3.3460    -0.2880    -1.5350 H     1 <1>   0.0800 
 32 H       -1.6090     1.8100     1.6450 H     1 <1>   0.0800 
 33 H       -3.3260     1.5450     1.8010 H     1 <1>   0.0800 
 34 H        3.1610     2.7930    -0.4150 H     1 <1>   0.1500 
 35 H        4.5740    -1.1890    -1.0400 H     1 <1>   0.1500 
 36 H       -4.4250     2.2280    -1.3890 H     1 <1>   0.0800 
 37 H       -2.8100     1.9630    -2.0140 H     1 <1>   0.0800 
 38 H       -1.9120     3.1010    -0.2960 H     1 <1>   0.0800 
 39 H       -3.4930     3.3810     0.4050 H     1 <1>   0.0800 
 40 H        5.4930     2.9480    -0.0920 H     1 <1>   0.0800 
 41 H        5.0670     3.1760    -1.7830 H     1 <1>   0.0800 
 42 H        9.7070     3.0230    -1.8270 H     1 <1>   0.0800 
 43 H        9.8490     1.2950    -1.6790 H     1 <1>   0.0800 
 44 H        8.0150     0.1130    -0.0230 H     1 <1>   0.0800 
 45 H        6.8950     1.2020     0.7410 H     1 <1>   0.0800 
 46 H       10.2740     3.3290     0.5360 H     1 <1>   0.0800 
 47 H       11.4890     2.3120    -0.2040 H     1 <1>   0.0800 
 48 H        8.8170     0.5610     2.2230 H     1 <1>   0.0800 
 49 H        8.6920     2.2890     1.9860 H     1 <1>   0.0800 
@<TRIPOS>BOND
  1   1   2  2   
  2   1   3  2   
  3   1   4  am  
  4   1   5  1   
  5   4   6  1   
  6   4  26  1   
  7   5   7  ar  
  8   5   8  ar  
  9   6   9  1   
 10   6  10  1   
 11   6  27  1   
 12   7  11  ar  
 13   7  28  1   
 14   8  12  ar  
 15   8  29  1   
 16   9  13  1   
 17   9  30  1   
 18   9  31  1   
 19  10  14  1   
 20  10  32  1   
 21  10  33  1   
 22  11  15  ar  
 23  11  34  1   
 24  12  15  ar  
 25  12  35  1   
 26  13  14  1   
 27  13  36  1   
 28  13  37  1   
 29  14  38  1   
 30  14  39  1   
 31  15  16  1   
 32  16  17  1   
 33  17  18  1   
 34  17  40  1   
 35  17  41  1   
 36  18  19  2   
 37  18  20  am  
 38  20  21  1   
 39  20  22  1   
 40  21  23  1   
 41  21  42  1   
 42  21  43  1   
 43  22  24  1   
 44  22  44  1   
 45  22  45  1   
 46  23  25  1   
 47  23  46  1   
 48  23  47  1   
 49  24  25  1   
 50  24  48  1   
 51  24  49  1   
@<TRIPOS>SUBSTRUCTURE
  1 ****  11 GROUP 4 **** **** 0

# MOE 2024.06 (io_trps.svl 2023.06)
