@<TRIPOS>MOLECULE
1-(Benzo[1,2,3]thiadiazol-5-ylcarbamoyl)-piperidine-4-carboxylic acid ethyl este
41 43 1 0 0 
SMALL
USER_CHARGES


@<TRIPOS>ATOM
  1 S        0.1060     0.8830    -1.4790 S.3   1 <1>   0.1810 
  2 N        0.1440     2.3910    -2.2820 N.2   1 <1>  -0.2210 
  3 C        1.7330     1.0570    -0.8810 C.ar  1 <1>   0.0400 
  4 N        1.2530     2.9640    -2.1240 N.2   1 <1>  -0.2270 
  5 C        2.1760     2.2670    -1.3530 C.ar  1 <1>   0.2270 
  6 C        2.4970     0.2160    -0.0950 C.ar  1 <1>  -0.1500 
  7 C        3.4620     2.6730    -1.0290 C.ar  1 <1>  -0.1500 
  8 C        3.7770     0.6370     0.2200 C.ar  1 <1>  -0.1500 
  9 C        4.2740     1.8620    -0.2430 C.ar  1 <1>   0.1170 
 10 N        5.5640     2.3090     0.0750 N.am  1 <1>  -0.5470 
 11 C        6.7080     1.6180     0.3560 C.2   1 <1>   0.6900 
 12 O        6.7540     0.4090     0.2380 O.2   1 <1>  -0.5700 
 13 N        7.8210     2.3220     0.7370 N.am  1 <1>  -0.6600 
 14 C        9.1800     1.7330     0.6120 C.3   1 <1>   0.1400 
 15 C        7.7930     3.6610     1.3810 C.3   1 <1>   0.1400 
 16 C       10.0590     2.6760    -0.2150 C.3   1 <1>  -0.1600 
 17 C        8.6390     4.6290     0.5520 C.3   1 <1>  -0.1600 
 18 C       10.0800     4.1060     0.3640 C.3   1 <1>  -0.0190 
 19 C       10.9340     5.0320    -0.5000 C.2   1 <1>   0.6590 
 20 O       10.4610     5.9110    -1.1750 O.2   1 <1>  -0.5700 
 21 O       12.2400     4.8030    -0.4580 O.3   1 <1>  -0.4300 
 22 C       13.1440     5.5730    -1.2150 C.3   1 <1>   0.1200 
 23 C       14.5500     5.0440    -0.9540 C.3   1 <1>  -0.2400 
 24 H        2.1110    -0.7250     0.2550 H     1 <1>   0.1500 
 25 H        3.8150     3.6160    -1.3990 H     1 <1>   0.1500 
 26 H        4.4010     0.0100     0.8340 H     1 <1>   0.1500 
 27 H        5.7430     3.2960    -0.0740 H     1 <1>   0.3700 
 28 H        9.1340     0.7700     0.1300 H     1 <1>   0.0800 
 29 H        9.5980     1.5950     1.5940 H     1 <1>   0.0800 
 30 H        8.2020     3.5770     2.3740 H     1 <1>   0.0800 
 31 H        6.7860     4.0300     1.4730 H     1 <1>   0.0800 
 32 H        9.6850     2.6980    -1.2240 H     1 <1>   0.0800 
 33 H       11.0600     2.2820    -0.2470 H     1 <1>   0.0800 
 34 H        8.6650     5.5880     1.0400 H     1 <1>   0.0800 
 35 H        8.1720     4.7660    -0.4090 H     1 <1>   0.0800 
 36 H       10.5460     4.0670     1.3330 H     1 <1>   0.0800 
 37 H       13.0540     6.6030    -0.9110 H     1 <1>   0.0800 
 38 H       12.8820     5.4810    -2.2560 H     1 <1>   0.0800 
 39 H       14.7940     5.1350     0.0890 H     1 <1>   0.0800 
 40 H       15.2630     5.6140    -1.5230 H     1 <1>   0.0800 
 41 H       14.6200     4.0130    -1.2530 H     1 <1>   0.0800 
@<TRIPOS>BOND
  1   1   2  1   
  2   1   3  1   
  3   2   4  2   
  4   3   5  ar  
  5   3   6  ar  
  6   4   5  1   
  7   5   7  ar  
  8   6   8  ar  
  9   6  24  1   
 10   7   9  ar  
 11   7  25  1   
 12   8   9  ar  
 13   8  26  1   
 14   9  10  1   
 15  10  11  am  
 16  10  27  1   
 17  11  12  2   
 18  11  13  am  
 19  13  14  1   
 20  13  15  1   
 21  14  16  1   
 22  14  28  1   
 23  14  29  1   
 24  15  17  1   
 25  15  30  1   
 26  15  31  1   
 27  16  18  1   
 28  16  32  1   
 29  16  33  1   
 30  17  18  1   
 31  17  34  1   
 32  17  35  1   
 33  18  19  1   
 34  18  36  1   
 35  19  20  2   
 36  19  21  1   
 37  21  22  1   
 38  22  23  1   
 39  22  37  1   
 40  22  38  1   
 41  23  39  1   
 42  23  40  1   
 43  23  41  1   
@<TRIPOS>SUBSTRUCTURE
  1 ****  10 GROUP 4 **** **** 0

# MOE 2024.06 (io_trps.svl 2023.06)
