@<TRIPOS>MOLECULE
8-(2,4-Dimethoxy-phenyl)-1,3-dimethyl-5,6,7,8-tetrahydro-1H-1,3,4b,8,9-pentaaza-
49 52 1 0 0 
SMALL
USER_CHARGES


@<TRIPOS>ATOM
  1 O        1.7080     0.0930     2.5060 O.2   1 <1>  -0.5750 
  2 C        2.4270     0.7800     1.8110 C.2   1 <1>   0.6860 
  3 N        1.9720     2.0100     1.3420 N.am  1 <1>  -0.4260 
  4 N        3.7030     0.3380     1.4860 N.am  1 <1>  -0.4420 
  5 C        2.7690     2.8120     0.5350 C.2   1 <1>   0.6990 
  6 C        0.5880     2.4510     1.7010 C.3   1 <1>   0.0520 
  7 C        4.4960     1.1560     0.7050 C.2   1 <1>   0.4200 
  8 C        4.2120    -0.9770     1.9770 C.3   1 <1>   0.0520 
  9 O        2.3600     3.8770     0.1040 O.2   1 <1>  -0.5750 
 10 C        4.0880     2.3510     0.2260 C.2   1 <1>   0.2700 
 11 N        5.7760     0.9400     0.2980 N.pl3 1 <1>  -0.7040 
 12 N        5.1710     2.8690    -0.5010 N.pl3 1 <1>  -0.7670 
 13 C        6.1660     1.9920    -0.4180 C.cat 1 <1>   1.0690 
 14 C        5.2430     4.1670    -1.1980 C.3   1 <1>   0.3480 
 15 N        7.3680     2.1840    -0.9950 N.pl3 1 <1>  -0.5800 
 16 C        6.3870     4.1150    -2.2150 C.3   1 <1>  -0.1670 
 17 C        8.4290     1.2560    -0.9110 C.ar  1 <1>   0.3050 
 18 C        7.6630     3.5040    -1.6190 C.3   1 <1>   0.1600 
 19 C        8.9650     0.8460     0.3200 C.ar  1 <1>   0.0750 
 20 C        8.9570     0.7280    -2.0820 C.ar  1 <1>  -0.1570 
 21 O        8.4180     1.3660     1.4590 O.3   1 <1>  -0.3690 
 22 C       10.0120    -0.0690     0.3560 C.ar  1 <1>  -0.1570 
 23 C        9.9970    -0.1810    -2.0410 C.ar  1 <1>  -0.1570 
 24 C        9.1300     1.3460     2.6810 C.3   1 <1>   0.0320 
 25 C       10.5310    -0.5820    -0.8290 C.ar  1 <1>   0.0750 
 26 O       11.5500    -1.4760    -0.8850 O.3   1 <1>  -0.3690 
 27 C       12.2230    -1.9030     0.2790 C.3   1 <1>   0.0320 
 28 H        0.3760     2.2040     2.7270 H     1 <1>   0.0720 
 29 H       -0.1250     1.9490     1.0700 H     1 <1>   0.0720 
 30 H        0.4740     3.5140     1.5810 H     1 <1>   0.0720 
 31 H        3.3950    -1.6230     2.2500 H     1 <1>   0.0720 
 32 H        4.8330    -0.8250     2.8430 H     1 <1>   0.0720 
 33 H        4.7810    -1.4680     1.2080 H     1 <1>   0.0720 
 34 H        6.4160     0.1990     0.5750 H     1 <1>   0.4450 
 35 H        5.4210     4.9470    -0.4760 H     1 <1>   0.0720 
 36 H        4.3100     4.3730    -1.7000 H     1 <1>   0.0720 
 37 H        6.5950     5.1110    -2.5650 H     1 <1>   0.0720 
 38 H        6.0800     3.5370    -3.0690 H     1 <1>   0.0720 
 39 H        8.4030     3.3910    -2.3950 H     1 <1>   0.0720 
 40 H        8.0690     4.1600    -0.8660 H     1 <1>   0.0720 
 41 H        8.5560     1.0230    -3.0350 H     1 <1>   0.1430 
 42 H       10.4220    -0.3880     1.2930 H     1 <1>   0.1430 
 43 H       10.4060    -0.5880    -2.9500 H     1 <1>   0.1430 
 44 H        8.5970     1.9500     3.3920 H     1 <1>   0.0720 
 45 H       10.1130     1.7550     2.5220 H     1 <1>   0.0720 
 46 H        9.1910     0.3330     3.0390 H     1 <1>   0.0720 
 47 H       13.0050    -2.5790    -0.0170 H     1 <1>   0.0720 
 48 H       11.5250    -2.4110     0.9210 H     1 <1>   0.0720 
 49 H       12.6490    -1.0460     0.7710 H     1 <1>   0.0720 
@<TRIPOS>BOND
  1   1   2  2   
  2   2   3  am  
  3   2   4  am  
  4   3   5  am  
  5   3   6  1   
  6   4   7  1   
  7   4   8  1   
  8   5   9  2   
  9   5  10  1   
 10   6  28  1   
 11   6  29  1   
 12   6  30  1   
 13   7  10  2   
 14   7  11  1   
 15   8  31  1   
 16   8  32  1   
 17   8  33  1   
 18  10  12  1   
 19  11  13  ar  
 20  11  34  1   
 21  12  13  ar  
 22  12  14  1   
 23  13  15  ar  
 24  14  16  1   
 25  14  35  1   
 26  14  36  1   
 27  15  17  1   
 28  15  18  1   
 29  16  18  1   
 30  16  37  1   
 31  16  38  1   
 32  17  19  ar  
 33  17  20  ar  
 34  18  39  1   
 35  18  40  1   
 36  19  21  1   
 37  19  22  ar  
 38  20  23  ar  
 39  20  41  1   
 40  21  24  1   
 41  22  25  ar  
 42  22  42  1   
 43  23  25  ar  
 44  23  43  1   
 45  24  44  1   
 46  24  45  1   
 47  24  46  1   
 48  25  26  1   
 49  26  27  1   
 50  27  47  1   
 51  27  48  1   
 52  27  49  1   
@<TRIPOS>SUBSTRUCTURE
  1 ****  11 GROUP 4 **** **** 0

# MOE 2024.06 (io_trps.svl 2023.06)
