@<TRIPOS>MOLECULE
4-[3-(3-Ethoxy-4-methoxy-phenyl)-[1,2,4]oxadiazol-5-yl]-1-piperidin-1-yl-butan-1
54 56 1 0 0 
SMALL
USER_CHARGES


@<TRIPOS>ATOM
  1 O        0.1030    -0.0270     0.3210 O.2   1 <1>  -0.5700 
  2 C        1.2980     0.1160     0.4320 C.2   1 <1>   0.5690 
  3 N        1.8720     1.3630     0.4850 N.am  1 <1>  -0.6600 
  4 C        2.1710    -1.1330     0.5130 C.3   1 <1>  -0.0990 
  5 C        3.3250     1.6440     0.6630 C.3   1 <1>   0.1400 
  6 C        1.0430     2.5950     0.3450 C.3   1 <1>   0.1400 
  7 C        1.4070    -2.4670     0.3780 C.3   1 <1>  -0.1600 
  8 C        3.8440     2.4430    -0.5370 C.3   1 <1>  -0.1600 
  9 C        1.5360     3.4130    -0.8540 C.3   1 <1>  -0.1600 
 10 C        2.3530    -3.6770     0.4610 C.3   1 <1>   0.0200 
 11 C        3.0340     3.7310    -0.7480 C.3   1 <1>  -0.1600 
 12 C        1.6490    -5.0200     0.3320 C.2   1 <1>   0.2980 
 13 O        2.3860    -6.0980     0.3860 O.3   1 <1>  -0.0190 
 14 N        0.4060    -5.2230     0.1750 N.2   1 <1>  -0.5650 
 15 N        1.5400    -7.0700     0.2510 N.2   1 <1>  -0.4100 
 16 C        0.3670    -6.5580     0.1250 C.2   1 <1>   0.4620 
 17 C       -0.8690    -7.3040    -0.0500 C.ar  1 <1>   0.0540 
 18 C       -2.1020    -6.6670    -0.1880 C.ar  1 <1>  -0.1500 
 19 C       -0.8730    -8.6980    -0.0860 C.ar  1 <1>  -0.1500 
 20 C       -3.2840    -7.3680    -0.3510 C.ar  1 <1>   0.0820 
 21 C       -2.0400    -9.4200    -0.2580 C.ar  1 <1>  -0.1500 
 22 O       -4.4030    -6.5990    -0.4580 O.3   1 <1>  -0.3620 
 23 C       -3.2630    -8.7700    -0.4020 C.ar  1 <1>   0.0820 
 24 C       -5.6160    -7.0120     0.1290 C.3   1 <1>   0.1200 
 25 O       -4.4190    -9.4640    -0.6060 O.3   1 <1>  -0.3630 
 26 C       -6.4680    -5.7700     0.3750 C.3   1 <1>  -0.2400 
 27 C       -4.4280   -10.8530    -0.8520 C.3   1 <1>   0.0400 
 28 H        2.6790    -1.1190     1.4590 H     1 <1>   0.0800 
 29 H        2.9030    -1.0740    -0.2710 H     1 <1>   0.0800 
 30 H        3.8940     0.7380     0.7630 H     1 <1>   0.0800 
 31 H        3.4580     2.2180     1.5640 H     1 <1>   0.0800 
 32 H        1.1260     3.1770     1.2470 H     1 <1>   0.0800 
 33 H        0.0050     2.3460     0.2060 H     1 <1>   0.0800 
 34 H        0.8850    -2.4850    -0.5650 H     1 <1>   0.0800 
 35 H        0.6680    -2.5360     1.1590 H     1 <1>   0.0800 
 36 H        3.7840     1.8280    -1.4180 H     1 <1>   0.0800 
 37 H        4.8790     2.6920    -0.3790 H     1 <1>   0.0800 
 38 H        0.9750     4.3280    -0.9130 H     1 <1>   0.0800 
 39 H        1.3440     2.8530    -1.7530 H     1 <1>   0.0800 
 40 H        2.8690    -3.6620     1.4040 H     1 <1>   0.0800 
 41 H        3.0870    -3.6100    -0.3220 H     1 <1>   0.0800 
 42 H        3.3650     4.2270    -1.6450 H     1 <1>   0.0800 
 43 H        3.1990     4.3970     0.0810 H     1 <1>   0.0800 
 44 H       -2.1480    -5.5930    -0.1650 H     1 <1>   0.1500 
 45 H        0.0580    -9.2280     0.0210 H     1 <1>   0.1500 
 46 H       -1.9700   -10.4900    -0.2780 H     1 <1>   0.1500 
 47 H       -5.3980    -7.5170     1.0540 H     1 <1>   0.0800 
 48 H       -6.1100    -7.6820    -0.5520 H     1 <1>   0.0800 
 49 H       -5.9590    -5.1020     1.0460 H     1 <1>   0.0800 
 50 H       -7.4060    -6.0550     0.8160 H     1 <1>   0.0800 
 51 H       -6.6620    -5.2670    -0.5550 H     1 <1>   0.0800 
 52 H       -5.4410   -11.1480    -1.0580 H     1 <1>   0.0800 
 53 H       -4.0710   -11.3650     0.0230 H     1 <1>   0.0800 
 54 H       -3.8070   -11.0610    -1.7050 H     1 <1>   0.0800 
@<TRIPOS>BOND
  1   1   2  2   
  2   2   3  am  
  3   2   4  1   
  4   3   5  1   
  5   3   6  1   
  6   4   7  1   
  7   4  28  1   
  8   4  29  1   
  9   5   8  1   
 10   5  30  1   
 11   5  31  1   
 12   6   9  1   
 13   6  32  1   
 14   6  33  1   
 15   7  10  1   
 16   7  34  1   
 17   7  35  1   
 18   8  11  1   
 19   8  36  1   
 20   8  37  1   
 21   9  11  1   
 22   9  38  1   
 23   9  39  1   
 24  10  12  1   
 25  10  40  1   
 26  10  41  1   
 27  11  42  1   
 28  11  43  1   
 29  12  13  1   
 30  12  14  2   
 31  13  15  1   
 32  14  16  1   
 33  15  16  2   
 34  16  17  1   
 35  17  18  ar  
 36  17  19  ar  
 37  18  20  ar  
 38  18  44  1   
 39  19  21  ar  
 40  19  45  1   
 41  20  22  1   
 42  20  23  ar  
 43  21  23  ar  
 44  21  46  1   
 45  22  24  1   
 46  23  25  1   
 47  24  26  1   
 48  24  47  1   
 49  24  48  1   
 50  25  27  1   
 51  26  49  1   
 52  26  50  1   
 53  26  51  1   
 54  27  52  1   
 55  27  53  1   
 56  27  54  1   
@<TRIPOS>SUBSTRUCTURE
  1 ****  14 GROUP 4 **** **** 0

# MOE 2024.06 (io_trps.svl 2023.06)
