@<TRIPOS>MOLECULE
2-(4-Chloro-phenoxy)-2-methyl-N-(2-morpholin-4-yl-phenyl)-propionamide
49 51 1 0 0 
SMALL
USER_CHARGES


@<TRIPOS>ATOM
  1 CL      -5.0820     1.9160     4.2000 Cl    1 <1>  -0.1770 
  2 C       -5.5260     1.2590     2.6450 C.ar  1 <1>   0.1770 
  3 C       -5.7320    -0.1020     2.5190 C.ar  1 <1>  -0.1500 
  4 C       -5.6690     2.1090     1.5660 C.ar  1 <1>  -0.1500 
  5 C       -6.0950    -0.6250     1.2890 C.ar  1 <1>  -0.1500 
  6 C       -6.0340     1.5830     0.3380 C.ar  1 <1>  -0.1500 
  7 C       -6.2500     0.2200     0.1900 C.ar  1 <1>   0.0830 
  8 O       -6.6190    -0.1880    -1.0540 O.3   1 <1>  -0.3630 
  9 C       -6.4990    -1.5110    -1.5800 C.3   1 <1>   0.3410 
 10 C       -7.4670    -2.4990    -0.8770 C.2   1 <1>   0.5690 
 11 C       -5.0160    -1.9300    -1.5170 C.3   1 <1>  -0.2400 
 12 C       -6.9030    -1.3800    -3.0540 C.3   1 <1>  -0.2400 
 13 O       -7.2010    -3.6810    -0.8680 O.2   1 <1>  -0.5700 
 14 N       -8.5900    -1.9920    -0.2870 N.am  1 <1>  -0.5470 
 15 C       -9.6290    -2.5490     0.4750 C.ar  1 <1>   0.1170 
 16 C      -10.4420    -1.6510     1.1800 C.ar  1 <1>   0.1000 
 17 C       -9.8820    -3.9120     0.5540 C.ar  1 <1>  -0.1500 
 18 N      -10.1950    -0.2680     1.1010 N.pl3 1 <1>  -0.8380 
 19 C      -11.4820    -2.1480     1.9560 C.ar  1 <1>  -0.1500 
 20 C      -10.9240    -4.3910     1.3290 C.ar  1 <1>  -0.1500 
 21 C      -11.3040     0.5630     0.5430 C.3   1 <1>   0.2090 
 22 C       -9.6220     0.3440     2.3380 C.3   1 <1>   0.2090 
 23 C      -11.7240    -3.5090     2.0310 C.ar  1 <1>  -0.1500 
 24 C      -10.8730     2.0350     0.4070 C.3   1 <1>   0.1200 
 25 C       -9.2870     1.8300     2.1170 C.3   1 <1>   0.1200 
 26 O      -10.3980     2.5300     1.6290 O.3   1 <1>  -0.5600 
 27 H       -5.6110    -0.7430     3.3750 H     1 <1>   0.1500 
 28 H       -5.4990     3.1640     1.6870 H     1 <1>   0.1500 
 29 H       -6.2530    -1.6840     1.2180 H     1 <1>   0.1500 
 30 H       -6.1530     2.2280    -0.5140 H     1 <1>   0.1500 
 31 H       -4.8780    -2.8540    -2.0510 H     1 <1>   0.0800 
 32 H       -4.7010    -2.0960    -0.5050 H     1 <1>   0.0800 
 33 H       -4.3930    -1.1790    -1.9670 H     1 <1>   0.0800 
 34 H       -6.8280    -2.3370    -3.5410 H     1 <1>   0.0800 
 35 H       -6.2600    -0.6850    -3.5630 H     1 <1>   0.0800 
 36 H       -7.9210    -1.0440    -3.1310 H     1 <1>   0.0800 
 37 H       -8.6500    -0.9670    -0.2550 H     1 <1>   0.3700 
 38 H       -9.2690    -4.6070     0.0100 H     1 <1>   0.1500 
 39 H      -12.1030    -1.4670     2.5060 H     1 <1>   0.1500 
 40 H      -11.1090    -5.4500     1.3820 H     1 <1>   0.1500 
 41 H      -12.1640     0.5080     1.1860 H     1 <1>   0.0800 
 42 H      -11.5820     0.1790    -0.4230 H     1 <1>   0.0800 
 43 H       -8.7290    -0.1870     2.6170 H     1 <1>   0.0800 
 44 H      -10.3280     0.2580     3.1470 H     1 <1>   0.0800 
 45 H      -12.5330    -3.8800     2.6360 H     1 <1>   0.1500 
 46 H      -11.7110     2.6400     0.1100 H     1 <1>   0.0800 
 47 H      -10.0960     2.1310    -0.3300 H     1 <1>   0.0800 
 48 H       -8.4860     1.9270     1.4080 H     1 <1>   0.0800 
 49 H       -8.9880     2.2860     3.0430 H     1 <1>   0.0800 
@<TRIPOS>BOND
  1   1   2  1   
  2   2   3  ar  
  3   2   4  ar  
  4   3   5  ar  
  5   3  27  1   
  6   4   6  ar  
  7   4  28  1   
  8   5   7  ar  
  9   5  29  1   
 10   6   7  ar  
 11   6  30  1   
 12   7   8  1   
 13   8   9  1   
 14   9  10  1   
 15   9  11  1   
 16   9  12  1   
 17  10  13  2   
 18  10  14  am  
 19  11  31  1   
 20  11  32  1   
 21  11  33  1   
 22  12  34  1   
 23  12  35  1   
 24  12  36  1   
 25  14  15  1   
 26  14  37  1   
 27  15  16  ar  
 28  15  17  ar  
 29  16  18  1   
 30  16  19  ar  
 31  17  20  ar  
 32  17  38  1   
 33  18  21  1   
 34  18  22  1   
 35  19  23  ar  
 36  19  39  1   
 37  20  23  ar  
 38  20  40  1   
 39  21  24  1   
 40  21  41  1   
 41  21  42  1   
 42  22  25  1   
 43  22  43  1   
 44  22  44  1   
 45  23  45  1   
 46  24  26  1   
 47  24  46  1   
 48  24  47  1   
 49  25  26  1   
 50  25  48  1   
 51  25  49  1   
@<TRIPOS>SUBSTRUCTURE
  1 ****  14 GROUP 4 **** **** 0

# MOE 2024.06 (io_trps.svl 2023.06)
