@<TRIPOS>MOLECULE
9-Cyclohexyl-2-(3-methoxy-phenyl)-8-oxo-8,9-dihydro-7H-purine-6-carboxylic acid
48 51 1 0 0 
SMALL
USER_CHARGES


@<TRIPOS>ATOM
  1 O       -0.5470     0.1640     0.2460 O.2   1 <1>  -0.5700 
  2 C       -1.7550     0.1380     0.1100 C.2   1 <1>   0.6900 
  3 N       -2.5490    -0.9730     0.1260 N.am  1 <1>  -0.4770 
  4 N       -2.5200     1.2370    -0.0850 N.am  1 <1>  -0.5470 
  5 C       -3.8470    -0.5430    -0.0660 C.ar  1 <1>   0.4270 
  6 C       -2.0430    -2.3540     0.3050 C.3   1 <1>   0.2200 
  7 C       -3.8380     0.8250    -0.2000 C.ar  1 <1>   0.1170 
  8 N       -4.9280    -1.2780    -0.1210 N.ar  1 <1>  -0.6200 
  9 C       -2.3310    -3.2080    -0.9390 C.3   1 <1>  -0.1600 
 10 C       -2.6270    -2.9910     1.5750 C.3   1 <1>  -0.1600 
 11 C       -5.0520     1.4580    -0.4070 C.ar  1 <1>   0.3960 
 12 C       -6.0610    -0.6080    -0.3220 C.ar  1 <1>   0.6200 
 13 C       -1.8190    -4.6440    -0.7530 C.3   1 <1>  -0.1600 
 14 C       -2.1140    -4.4270     1.7580 C.3   1 <1>  -0.1600 
 15 N       -6.1660     0.7180    -0.4640 N.ar  1 <1>  -0.6200 
 16 C       -5.1170     2.9070    -0.5630 C.2   1 <1>   0.5440 
 17 C       -7.2850    -1.3900    -0.3910 C.ar  1 <1>   0.0000 
 18 C       -2.4050    -5.2800     0.5150 C.3   1 <1>  -0.1600 
 19 O       -4.1310     3.6150    -0.4860 O.2   1 <1>  -0.5700 
 20 N       -6.2860     3.5560    -0.8060 N.am  1 <1>  -0.8000 
 21 C       -7.2880    -2.6940    -0.8920 C.ar  1 <1>  -0.1500 
 22 C       -8.5120    -0.8780     0.0420 C.ar  1 <1>  -0.1500 
 23 C       -8.4420    -3.4540    -0.9620 C.ar  1 <1>   0.0820 
 24 C       -9.6740    -1.6250    -0.0240 C.ar  1 <1>  -0.1500 
 25 O       -8.3160    -4.7070    -1.4660 O.3   1 <1>  -0.3620 
 26 C       -9.6460    -2.9130    -0.5250 C.ar  1 <1>  -0.1500 
 27 C       -9.4230    -5.5760    -1.5560 C.3   1 <1>   0.0400 
 28 H       -2.1610     2.1940    -0.1330 H     1 <1>   0.3700 
 29 H       -0.9730    -2.3050     0.4270 H     1 <1>   0.0800 
 30 H       -1.8520    -2.7660    -1.7940 H     1 <1>   0.0800 
 31 H       -3.3910    -3.2430    -1.1200 H     1 <1>   0.0800 
 32 H       -3.7000    -3.0160     1.5120 H     1 <1>   0.0800 
 33 H       -2.3490    -2.4020     2.4310 H     1 <1>   0.0800 
 34 H       -0.7440    -4.6340    -0.6830 H     1 <1>   0.0800 
 35 H       -2.0880    -5.2360    -1.6110 H     1 <1>   0.0800 
 36 H       -2.5850    -4.8710     2.6180 H     1 <1>   0.0800 
 37 H       -1.0520    -4.4080     1.9360 H     1 <1>   0.0800 
 38 H       -1.9910    -6.2650     0.6490 H     1 <1>   0.0800 
 39 H       -3.4710    -5.3850     0.3990 H     1 <1>   0.0800 
 40 H       -6.2950     4.5700    -0.9200 H     1 <1>   0.3700 
 41 H       -7.1720     3.0580    -0.9110 H     1 <1>   0.3700 
 42 H       -6.3700    -3.1370    -1.2370 H     1 <1>   0.1500 
 43 H       -8.5570     0.1210     0.4390 H     1 <1>   0.1500 
 44 H      -10.6040    -1.2020     0.3170 H     1 <1>   0.1500 
 45 H      -10.5600    -3.4740    -0.5660 H     1 <1>   0.1500 
 46 H       -9.0820    -6.5070    -1.9700 H     1 <1>   0.0800 
 47 H      -10.1610    -5.1360    -2.2020 H     1 <1>   0.0800 
 48 H       -9.8200    -5.7380    -0.5690 H     1 <1>   0.0800 
@<TRIPOS>BOND
  1   1   2  2   
  2   2   3  am  
  3   2   4  am  
  4   3   5  1   
  5   3   6  1   
  6   4   7  1   
  7   4  28  1   
  8   5   7  ar  
  9   5   8  ar  
 10   6   9  1   
 11   6  10  1   
 12   6  29  1   
 13   7  11  ar  
 14   8  12  ar  
 15   9  13  1   
 16   9  30  1   
 17   9  31  1   
 18  10  14  1   
 19  10  32  1   
 20  10  33  1   
 21  11  15  ar  
 22  11  16  1   
 23  12  15  ar  
 24  12  17  1   
 25  13  18  1   
 26  13  34  1   
 27  13  35  1   
 28  14  18  1   
 29  14  36  1   
 30  14  37  1   
 31  16  19  2   
 32  16  20  am  
 33  17  21  ar  
 34  17  22  ar  
 35  18  38  1   
 36  18  39  1   
 37  20  40  1   
 38  20  41  1   
 39  21  23  ar  
 40  21  42  1   
 41  22  24  ar  
 42  22  43  1   
 43  23  25  1   
 44  23  26  ar  
 45  24  26  ar  
 46  24  44  1   
 47  25  27  1   
 48  26  45  1   
 49  27  46  1   
 50  27  47  1   
 51  27  48  1   
@<TRIPOS>SUBSTRUCTURE
  1 ****   8 GROUP 4 **** **** 0

# MOE 2024.06 (io_trps.svl 2023.06)
