@<TRIPOS>MOLECULE
N-Methyl-2-[2-methyl-4-(pyrrolidine-1-sulfonyl)-phenoxy]-acetamide
41 42 1 0 0 
SMALL
USER_CHARGES


@<TRIPOS>ATOM
  1 S       -0.4400     0.3300     1.6420 S.o2  1 <1>   1.4470 
  2 O       -0.3830    -0.4670     2.8480 O.2   1 <1>  -0.6500 
  3 O       -1.3670     1.4400     1.5650 O.2   1 <1>  -0.6500 
  4 N       -0.8270    -0.7300     0.3800 N.am  1 <1>  -0.8490 
  5 C        1.2320     0.8700     1.2030 C.ar  1 <1>  -0.0090 
  6 C       -2.0070    -1.5280     0.6560 C.3   1 <1>   0.1960 
  7 C       -1.0840    -0.0870    -0.8980 C.3   1 <1>   0.1960 
  8 C        1.5290     2.2100     0.9900 C.ar  1 <1>  -0.1500 
  9 C        2.2580    -0.0550     1.0600 C.ar  1 <1>  -0.1500 
 10 C       -2.4140    -2.0960    -0.6990 C.3   1 <1>  -0.1600 
 11 C       -1.7660    -1.1670    -1.7270 C.3   1 <1>  -0.1600 
 12 C        2.8040     2.6260     0.6430 C.ar  1 <1>  -0.1430 
 13 C        3.5370     0.3380     0.7150 C.ar  1 <1>  -0.1500 
 14 C        3.8180     1.6840     0.5030 C.ar  1 <1>   0.0830 
 15 C        3.0790     4.1060     0.4200 C.3   1 <1>  -0.0970 
 16 O        5.0510     2.1330     0.1620 O.3   1 <1>  -0.3630 
 17 C        6.1580     1.2500     0.0250 C.3   1 <1>   0.1810 
 18 C        7.4250     2.0100    -0.3440 C.2   1 <1>   0.5690 
 19 O        8.4450     1.3840    -0.5110 O.2   1 <1>  -0.5700 
 20 N        7.3750     3.3630    -0.4740 N.am  1 <1>  -0.7300 
 21 C        8.5110     4.2490    -0.8260 C.3   1 <1>   0.0600 
 22 H       -2.7940    -0.8970     1.0400 H     1 <1>   0.0800 
 23 H       -1.7890    -2.3030     1.3720 H     1 <1>   0.0800 
 24 H       -0.1700     0.2550    -1.3540 H     1 <1>   0.0800 
 25 H       -1.7590     0.7450    -0.7720 H     1 <1>   0.0800 
 26 H        0.7420     2.9380     1.1010 H     1 <1>   0.1500 
 27 H        2.0440    -1.0990     1.2230 H     1 <1>   0.1500 
 28 H       -3.4850    -2.1200    -0.7930 H     1 <1>   0.0800 
 29 H       -2.0290    -3.0960    -0.8040 H     1 <1>   0.0800 
 30 H       -1.0270    -1.7020    -2.2980 H     1 <1>   0.0800 
 31 H       -2.4880    -0.7380    -2.4000 H     1 <1>   0.0800 
 32 H        4.2920    -0.4190     0.6180 H     1 <1>   0.1500 
 33 H        2.1920     4.6950     0.5670 H     1 <1>   0.0800 
 34 H        3.4320     4.2650    -0.5830 H     1 <1>   0.0800 
 35 H        3.8310     4.4450     1.1100 H     1 <1>   0.0800 
 36 H        5.9340     0.5400    -0.7490 H     1 <1>   0.0800 
 37 H        6.3090     0.7450     0.9600 H     1 <1>   0.0800 
 38 H        6.4660     3.8100    -0.3150 H     1 <1>   0.3700 
 39 H        9.4070     3.6680    -0.9680 H     1 <1>   0.0800 
 40 H        8.6790     4.9580    -0.0340 H     1 <1>   0.0800 
 41 H        8.2920     4.7780    -1.7380 H     1 <1>   0.0800 
@<TRIPOS>BOND
  1   1   2  2   
  2   1   3  2   
  3   1   4  am  
  4   1   5  1   
  5   4   6  1   
  6   4   7  1   
  7   5   8  ar  
  8   5   9  ar  
  9   6  10  1   
 10   6  22  1   
 11   6  23  1   
 12   7  11  1   
 13   7  24  1   
 14   7  25  1   
 15   8  12  ar  
 16   8  26  1   
 17   9  13  ar  
 18   9  27  1   
 19  10  11  1   
 20  10  28  1   
 21  10  29  1   
 22  11  30  1   
 23  11  31  1   
 24  12  14  ar  
 25  12  15  1   
 26  13  14  ar  
 27  13  32  1   
 28  14  16  1   
 29  15  33  1   
 30  15  34  1   
 31  15  35  1   
 32  16  17  1   
 33  17  18  1   
 34  17  36  1   
 35  17  37  1   
 36  18  19  2   
 37  18  20  am  
 38  20  21  1   
 39  20  38  1   
 40  21  39  1   
 41  21  40  1   
 42  21  41  1   
@<TRIPOS>SUBSTRUCTURE
  1 ****   9 GROUP 4 **** **** 0

# MOE 2024.06 (io_trps.svl 2023.06)
