@<TRIPOS>MOLECULE
2-(5-Benzofuran-2-yl-4-methyl-4H-[1,2,4]triazol-3-ylsulfanyl)-N-cyclohexyl-aceta
48 51 1 0 0 
SMALL
USER_CHARGES


@<TRIPOS>ATOM
  1 S       -2.4660     0.1690     3.0000 S.3   1 <1>  -0.2860 
  2 C       -2.0030     1.0260     1.4890 C.2   1 <1>   0.2420 
  3 C       -1.8950    -1.5840     2.7500 C.3   1 <1>   0.1310 
  4 N       -1.1970     0.5430     0.6120 N.2   1 <1>  -0.3380 
  5 N       -2.4860     2.2220     1.1670 N.pl3 1 <1>   0.0480 
  6 C       -3.0950    -2.5150     2.6380 C.2   1 <1>   0.5690 
  7 N       -1.1390     1.4460    -0.3630 N.2   1 <1>  -0.3380 
  8 C       -1.9120     2.4490    -0.0360 C.2   1 <1>   0.1860 
  9 C       -3.4350     3.0640     1.9310 C.3   1 <1>   0.0160 
 10 O       -3.3660    -3.2180     3.5790 O.2   1 <1>  -0.5700 
 11 N       -3.8590    -2.5910     1.5200 N.am  1 <1>  -0.7300 
 12 C       -2.1130     3.6090    -0.8670 C.2   1 <1>   0.1400 
 13 C       -3.7170    -1.8760     0.2410 C.3   1 <1>   0.2200 
 14 O       -2.9660     4.5790    -0.5080 O.3   1 <1>  -0.2800 
 15 C       -1.5480     3.9240    -2.0590 C.2   1 <1>  -0.1500 
 16 C       -4.8100    -0.8070     0.1370 C.3   1 <1>  -0.1600 
 17 C       -3.8220    -2.8810    -0.9100 C.3   1 <1>  -0.1600 
 18 C       -2.9530     5.5130    -1.4590 C.ar  1 <1>   0.1400 
 19 C       -2.0770     5.1590    -2.4670 C.ar  1 <1>   0.0000 
 20 C       -4.7370    -0.0800    -1.2130 C.3   1 <1>  -0.1600 
 21 C       -3.7490    -2.1640    -2.2670 C.3   1 <1>  -0.1600 
 22 C       -3.6820     6.6930    -1.5000 C.ar  1 <1>  -0.1500 
 23 C       -1.9140     6.0060    -3.5640 C.ar  1 <1>  -0.1500 
 24 C       -4.8240    -1.0740    -2.3790 C.3   1 <1>  -0.1600 
 25 C       -3.5170     7.5280    -2.5880 C.ar  1 <1>  -0.1500 
 26 C       -2.6340     7.1830    -3.6160 C.ar  1 <1>  -0.1500 
 27 H       -1.3090    -1.8420     3.6120 H     1 <1>   0.0800 
 28 H       -1.2810    -1.6330     1.8730 H     1 <1>   0.0800 
 29 H       -3.6610     2.6140     2.8790 H     1 <1>   0.0800 
 30 H       -4.3430     3.1760     1.3660 H     1 <1>   0.0800 
 31 H       -2.9960     4.0320     2.0970 H     1 <1>   0.0800 
 32 H       -4.6540    -3.2290     1.5750 H     1 <1>   0.3700 
 33 H       -2.7530    -1.4060     0.1870 H     1 <1>   0.0800 
 34 H       -0.8260     3.3520    -2.6120 H     1 <1>   0.1500 
 35 H       -4.6930    -0.0930     0.9320 H     1 <1>   0.0800 
 36 H       -5.7760    -1.2700     0.2360 H     1 <1>   0.0800 
 37 H       -4.7540    -3.4130    -0.8430 H     1 <1>   0.0800 
 38 H       -3.0150    -3.5900    -0.8400 H     1 <1>   0.0800 
 39 H       -3.8070     0.4590    -1.2790 H     1 <1>   0.0800 
 40 H       -5.5380     0.6340    -1.2860 H     1 <1>   0.0800 
 41 H       -3.8740    -2.8800    -3.0610 H     1 <1>   0.0800 
 42 H       -2.7760    -1.7140    -2.3790 H     1 <1>   0.0800 
 43 H       -4.3540     6.9360    -0.6980 H     1 <1>   0.1500 
 44 H       -1.2330     5.7330    -4.3500 H     1 <1>   0.1500 
 45 H       -4.7050    -0.5470    -3.3100 H     1 <1>   0.0800 
 46 H       -5.7980    -1.5340    -2.3840 H     1 <1>   0.0800 
 47 H       -4.0670     8.4510    -2.6520 H     1 <1>   0.1500 
 48 H       -2.5200     7.8480    -4.4550 H     1 <1>   0.1500 
@<TRIPOS>BOND
  1   1   2  1   
  2   1   3  1   
  3   2   4  2   
  4   2   5  1   
  5   3   6  1   
  6   3  27  1   
  7   3  28  1   
  8   4   7  1   
  9   5   8  1   
 10   5   9  1   
 11   6  10  2   
 12   6  11  am  
 13   7   8  2   
 14   8  12  1   
 15   9  29  1   
 16   9  30  1   
 17   9  31  1   
 18  11  13  1   
 19  11  32  1   
 20  12  14  1   
 21  12  15  2   
 22  13  16  1   
 23  13  17  1   
 24  13  33  1   
 25  14  18  1   
 26  15  19  1   
 27  15  34  1   
 28  16  20  1   
 29  16  35  1   
 30  16  36  1   
 31  17  21  1   
 32  17  37  1   
 33  17  38  1   
 34  18  19  ar  
 35  18  22  ar  
 36  19  23  ar  
 37  20  24  1   
 38  20  39  1   
 39  20  40  1   
 40  21  24  1   
 41  21  41  1   
 42  21  42  1   
 43  22  25  ar  
 44  22  43  1   
 45  23  26  ar  
 46  23  44  1   
 47  24  45  1   
 48  24  46  1   
 49  25  26  ar  
 50  25  47  1   
 51  26  48  1   
@<TRIPOS>SUBSTRUCTURE
  1 ****   8 GROUP 4 **** **** 0

# MOE 2024.06 (io_trps.svl 2023.06)
