@<TRIPOS>MOLECULE
N-(Tetrahydro-furan-2-ylmethyl)-4-(3-p-tolyl-[1,2,4]oxadiazol-5-yl)-butyramide
47 49 1 0 0 
SMALL
USER_CHARGES


@<TRIPOS>ATOM
  1 O       -1.3440    -3.7650    -1.8140 O.2   1 <1>  -0.5700 
  2 C       -1.1470    -3.3110    -0.7140 C.2   1 <1>   0.5690 
  3 N        0.0640    -2.8400    -0.3340 N.am  1 <1>  -0.7300 
  4 C       -2.2890    -3.2520     0.2800 C.3   1 <1>  -0.0990 
  5 C        1.2950    -2.8550    -1.1570 C.3   1 <1>   0.1400 
  6 C       -3.0360    -1.9070     0.2020 C.3   1 <1>  -0.1600 
  7 C        2.4940    -3.2890    -0.3010 C.3   1 <1>   0.2000 
  8 C       -4.1140    -1.7390     1.2860 C.3   1 <1>   0.0200 
  9 O        2.5390    -2.5520     0.8830 O.3   1 <1>  -0.5600 
 10 C        3.8480    -3.0480    -0.9500 C.3   1 <1>  -0.1600 
 11 C       -5.2240    -2.7710     1.1930 C.2   1 <1>   0.2980 
 12 C        3.8360    -2.5210     1.3930 C.3   1 <1>   0.1200 
 13 C        4.7690    -2.9180     0.2500 C.3   1 <1>  -0.1600 
 14 O       -5.0520    -3.9390     1.7560 O.3   1 <1>  -0.0190 
 15 N       -6.3390    -2.6040     0.6130 N.2   1 <1>  -0.5650 
 16 N       -6.1530    -4.5740     1.5060 N.2   1 <1>  -0.4100 
 17 C       -6.9170    -3.7910     0.8290 C.2   1 <1>   0.4620 
 18 C       -8.2480    -4.1170     0.3420 C.ar  1 <1>   0.0540 
 19 C       -8.9980    -3.2120    -0.4120 C.ar  1 <1>  -0.1500 
 20 C       -8.8360    -5.3540     0.6100 C.ar  1 <1>  -0.1500 
 21 C      -10.2640    -3.5240    -0.8720 C.ar  1 <1>  -0.1500 
 22 C      -10.1020    -5.6720     0.1530 C.ar  1 <1>  -0.1500 
 23 C      -10.8260    -4.7570    -0.5910 C.ar  1 <1>  -0.1440 
 24 C      -12.2150    -5.1030    -1.0960 C.3   1 <1>  -0.0970 
 25 H        0.2330    -2.5010     0.6180 H     1 <1>   0.3700 
 26 H       -1.8980    -3.4060     1.2690 H     1 <1>   0.0800 
 27 H       -2.9620    -4.0610     0.0580 H     1 <1>   0.0800 
 28 H        1.4670    -1.8660    -1.5440 H     1 <1>   0.0800 
 29 H        1.1770    -3.5270    -1.9890 H     1 <1>   0.0800 
 30 H       -3.4940    -1.8200    -0.7690 H     1 <1>   0.0800 
 31 H       -2.3240    -1.1050     0.2980 H     1 <1>   0.0800 
 32 H        2.3940    -4.3270    -0.0310 H     1 <1>   0.0800 
 33 H       -4.5560    -0.7640     1.1830 H     1 <1>   0.0800 
 34 H       -3.6680    -1.7920     2.2630 H     1 <1>   0.0800 
 35 H        3.8310    -2.1260    -1.5040 H     1 <1>   0.0800 
 36 H        4.1300    -3.8540    -1.6060 H     1 <1>   0.0800 
 37 H        3.8970    -3.2170     2.2120 H     1 <1>   0.0800 
 38 H        4.0340    -1.5220     1.7420 H     1 <1>   0.0800 
 39 H        5.5370    -2.1820     0.0920 H     1 <1>   0.0800 
 40 H        5.2310    -3.8620     0.4800 H     1 <1>   0.0800 
 41 H       -8.5810    -2.2480    -0.6440 H     1 <1>   0.1500 
 42 H       -8.2910    -6.0810     1.1870 H     1 <1>   0.1500 
 43 H      -10.8110    -2.8010    -1.4520 H     1 <1>   0.1500 
 44 H      -10.5210    -6.6370     0.3790 H     1 <1>   0.1500 
 45 H      -12.1450    -5.5600    -2.0670 H     1 <1>   0.0800 
 46 H      -12.8190    -4.2170    -1.1710 H     1 <1>   0.0800 
 47 H      -12.7000    -5.7880    -0.4240 H     1 <1>   0.0800 
@<TRIPOS>BOND
  1   1   2  2   
  2   2   3  am  
  3   2   4  1   
  4   3   5  1   
  5   3  25  1   
  6   4   6  1   
  7   4  26  1   
  8   4  27  1   
  9   5   7  1   
 10   5  28  1   
 11   5  29  1   
 12   6   8  1   
 13   6  30  1   
 14   6  31  1   
 15   7   9  1   
 16   7  10  1   
 17   7  32  1   
 18   8  11  1   
 19   8  33  1   
 20   8  34  1   
 21   9  12  1   
 22  10  13  1   
 23  10  35  1   
 24  10  36  1   
 25  11  14  1   
 26  11  15  2   
 27  12  13  1   
 28  12  37  1   
 29  12  38  1   
 30  13  39  1   
 31  13  40  1   
 32  14  16  1   
 33  15  17  1   
 34  16  17  2   
 35  17  18  1   
 36  18  19  ar  
 37  18  20  ar  
 38  19  21  ar  
 39  19  41  1   
 40  20  22  ar  
 41  20  42  1   
 42  21  23  ar  
 43  21  43  1   
 44  22  23  ar  
 45  22  44  1   
 46  23  24  1   
 47  24  45  1   
 48  24  46  1   
 49  24  47  1   
@<TRIPOS>SUBSTRUCTURE
  1 ****   4 GROUP 4 **** **** 0

# MOE 2024.06 (io_trps.svl 2023.06)
