@<TRIPOS>MOLECULE
3-([1,2,4]Triazolo[3,4-b][1,3,4]thiadiazol-6-ylsulfanyl)-dihydro-furan-2-one
21 23 1 0 0 
SMALL
USER_CHARGES


@<TRIPOS>ATOM
  1 S       -0.1640    -0.0010     0.9690 S.3   1 <1>  -0.1970 
  2 C       -0.3350     1.2310    -0.2940 C.2   1 <1>   0.7320 
  3 C       -1.8230    -0.4540     0.6340 C.2   1 <1>   0.2430 
  4 S        1.0900     2.2580    -0.6370 S.3   1 <1>  -0.3710 
  5 N       -1.4590     1.2910    -0.8800 N.2   1 <1>  -0.6520 
  6 N       -2.6480    -1.3280     1.0860 N.2   1 <1>  -0.3380 
  7 N       -2.2990     0.3200    -0.3310 N.pl3 1 <1>   0.5050 
  8 C        2.3990     1.7820     0.5970 C.3   1 <1>   0.2110 
  9 N       -3.7730    -1.1300     0.3710 N.2   1 <1>  -0.3380 
 10 C       -3.5440    -0.1560    -0.4570 C.2   1 <1>   0.0360 
 11 C        3.4490     2.8680     0.6780 C.2   1 <1>   0.6590 
 12 C        3.1930     0.6040     0.0360 C.3   1 <1>  -0.1600 
 13 O        3.3500     3.8880     1.3060 O.2   1 <1>  -0.5700 
 14 O        4.5320     2.5200     0.0070 O.3   1 <1>  -0.4300 
 15 C        4.4080     1.2660    -0.6240 C.3   1 <1>   0.1200 
 16 H        1.9480     1.6030     1.5550 H     1 <1>   0.0800 
 17 H       -4.2420     0.2450    -1.1680 H     1 <1>   0.1500 
 18 H        2.6360     0.0010    -0.6590 H     1 <1>   0.0800 
 19 H        3.5340    -0.0210     0.8430 H     1 <1>   0.0800 
 20 H        4.2390     1.4430    -1.6740 H     1 <1>   0.0800 
 21 H        5.3160     0.7060    -0.4820 H     1 <1>   0.0800 
@<TRIPOS>BOND
  1   1   2  1   
  2   1   3  1   
  3   2   4  1   
  4   2   5  2   
  5   3   6  2   
  6   3   7  1   
  7   4   8  1   
  8   5   7  1   
  9   6   9  1   
 10   7  10  1   
 11   8  11  1   
 12   8  12  1   
 13   8  16  1   
 14   9  10  2   
 15  10  17  1   
 16  11  13  2   
 17  11  14  1   
 18  12  15  1   
 19  12  18  1   
 20  12  19  1   
 21  14  15  1   
 22  15  20  1   
 23  15  21  1   
@<TRIPOS>SUBSTRUCTURE
  1 ****   2 GROUP 4 **** **** 0

# MOE 2024.06 (io_trps.svl 2023.06)
