@<TRIPOS>MOLECULE
2-(5-Propionylamino-[1,3,4]thiadiazol-2-ylsulfanyl)-N-(2,4,6-trimethyl-phenyl)-p
47 48 1 0 0 
SMALL
USER_CHARGES


@<TRIPOS>ATOM
  1 S       -0.1220    -0.1510    -0.2570 S.3   1 <1>  -0.0800 
  2 C        1.2600     0.5740     0.4860 C.2   1 <1>   0.4340 
  3 C       -1.0530     1.1350     0.4460 C.2   1 <1>   0.4420 
  4 S        2.8730    -0.1840     0.2740 S.3   1 <1>  -0.2860 
  5 N        1.0010     1.6230     1.1510 N.2   1 <1>  -0.3380 
  6 N       -0.3290     1.9490     1.1280 N.2   1 <1>  -0.3380 
  7 N       -2.4100     1.1220     0.1890 N.am  1 <1>  -0.4940 
  8 C        2.6580    -1.6350    -0.8710 C.3   1 <1>   0.2110 
  9 C       -3.3780     1.9830     0.6180 C.2   1 <1>   0.5690 
 10 C        3.7430    -2.6790    -0.6020 C.2   1 <1>   0.5690 
 11 C        2.7020    -1.0950    -2.3070 C.3   1 <1>  -0.2400 
 12 O       -3.1660     2.9300     1.3280 O.2   1 <1>  -0.5700 
 13 C       -4.8030     1.7220     0.1620 C.3   1 <1>  -0.0990 
 14 O        3.4700    -3.8380    -0.8010 O.2   1 <1>  -0.5700 
 15 N        4.9740    -2.2650    -0.1710 N.am  1 <1>  -0.5470 
 16 C       -5.3880     0.4160     0.7250 C.3   1 <1>  -0.2400 
 17 C        6.1290    -3.0290     0.0490 C.ar  1 <1>   0.1170 
 18 C        7.2330    -2.8550    -0.7870 C.ar  1 <1>  -0.1430 
 19 C        6.2080    -3.9380     1.1070 C.ar  1 <1>  -0.1430 
 20 C        8.3890    -3.5830    -0.5660 C.ar  1 <1>  -0.1500 
 21 C        7.1890    -1.8780    -1.9560 C.3   1 <1>  -0.0970 
 22 C        7.3730    -4.6600     1.3070 C.ar  1 <1>  -0.1500 
 23 C        5.0410    -4.1620     2.0600 C.3   1 <1>  -0.0970 
 24 C        8.4670    -4.4890     0.4770 C.ar  1 <1>  -0.1430 
 25 C        9.7380    -5.2850     0.7100 C.3   1 <1>  -0.0970 
 26 H       -2.7370     0.3540    -0.3880 H     1 <1>   0.3700 
 27 H        1.7070    -2.0840    -0.6550 H     1 <1>   0.0800 
 28 H        3.6540    -0.6360    -2.5050 H     1 <1>   0.0800 
 29 H        1.9240    -0.3720    -2.4680 H     1 <1>   0.0800 
 30 H        2.5640    -1.9060    -3.0010 H     1 <1>   0.0800 
 31 H       -4.8280     1.7020    -0.9120 H     1 <1>   0.0800 
 32 H       -5.4170     2.5460     0.4830 H     1 <1>   0.0800 
 33 H        5.0870    -1.2610    -0.0310 H     1 <1>   0.3700 
 34 H       -4.8330    -0.4380     0.3840 H     1 <1>   0.0800 
 35 H       -6.4120     0.3060     0.4110 H     1 <1>   0.0800 
 36 H       -5.3640     0.4370     1.8020 H     1 <1>   0.0800 
 37 H        9.2400    -3.4500    -1.2100 H     1 <1>   0.1500 
 38 H        7.0590    -0.8750    -1.5940 H     1 <1>   0.0800 
 39 H        6.3710    -2.1270    -2.6080 H     1 <1>   0.0800 
 40 H        8.0990    -1.9180    -2.5280 H     1 <1>   0.0800 
 41 H        7.4340    -5.3640     2.1180 H     1 <1>   0.1500 
 42 H        4.2840    -4.7490     1.5730 H     1 <1>   0.0800 
 43 H        4.6150    -3.2220     2.3610 H     1 <1>   0.0800 
 44 H        5.3590    -4.6830     2.9440 H     1 <1>   0.0800 
 45 H       10.3790    -4.7540     1.3900 H     1 <1>   0.0800 
 46 H       10.2610    -5.4380    -0.2160 H     1 <1>   0.0800 
 47 H        9.5050    -6.2470     1.1300 H     1 <1>   0.0800 
@<TRIPOS>BOND
  1   1   2  1   
  2   1   3  1   
  3   2   4  1   
  4   2   5  2   
  5   3   6  2   
  6   3   7  1   
  7   4   8  1   
  8   5   6  1   
  9   7   9  am  
 10   7  26  1   
 11   8  10  1   
 12   8  11  1   
 13   8  27  1   
 14   9  12  2   
 15   9  13  1   
 16  10  14  2   
 17  10  15  am  
 18  11  28  1   
 19  11  29  1   
 20  11  30  1   
 21  13  16  1   
 22  13  31  1   
 23  13  32  1   
 24  15  17  1   
 25  15  33  1   
 26  16  34  1   
 27  16  35  1   
 28  16  36  1   
 29  17  18  ar  
 30  17  19  ar  
 31  18  20  ar  
 32  18  21  1   
 33  19  22  ar  
 34  19  23  1   
 35  20  24  ar  
 36  20  37  1   
 37  21  38  1   
 38  21  39  1   
 39  21  40  1   
 40  22  24  ar  
 41  22  41  1   
 42  23  42  1   
 43  23  43  1   
 44  23  44  1   
 45  24  25  1   
 46  25  45  1   
 47  25  46  1   
 48  25  47  1   
@<TRIPOS>SUBSTRUCTURE
  1 ****   8 GROUP 4 **** **** 0

# MOE 2024.06 (io_trps.svl 2023.06)
