@<TRIPOS>MOLECULE
3-[3-(3,4-Dimethoxy-phenyl)-[1,2,4]oxadiazol-5-yl]-N-isobutyl-propionamide
47 48 1 0 0 
SMALL
USER_CHARGES


@<TRIPOS>ATOM
  1 O        0.3800    -0.5790     2.0920 O.2   1 <1>  -0.5700 
  2 C        0.8030    -1.6260     1.6720 C.2   1 <1>   0.5690 
  3 N        2.0540    -1.6830     1.1650 N.am  1 <1>  -0.7300 
  4 C       -0.0700    -2.8670     1.7150 C.3   1 <1>  -0.0990 
  5 C        2.7910    -2.8400     0.6060 C.3   1 <1>   0.1400 
  6 C       -1.5430    -2.5540     2.0220 C.3   1 <1>   0.0200 
  7 C        2.7780    -2.7990    -0.9310 C.3   1 <1>  -0.0800 
  8 C       -2.3760    -3.8190     2.0160 C.2   1 <1>   0.2980 
  9 C        3.4650    -4.0500    -1.4950 C.3   1 <1>  -0.2400 
 10 C        3.4670    -1.5410    -1.4830 C.3   1 <1>  -0.2400 
 11 O       -2.2460    -4.6640     3.0050 O.3   1 <1>  -0.0190 
 12 N       -3.2030    -4.1560     1.1170 N.2   1 <1>  -0.5650 
 13 N       -3.0640    -5.6240     2.7080 N.2   1 <1>  -0.4100 
 14 C       -3.6350    -5.3280     1.5930 C.2   1 <1>   0.4620 
 15 C       -4.6260    -6.1400     0.9060 C.ar  1 <1>   0.0540 
 16 C       -5.1750    -5.7540    -0.3160 C.ar  1 <1>  -0.1500 
 17 C       -5.0730    -7.3470     1.4440 C.ar  1 <1>  -0.1500 
 18 C       -6.1210    -6.5160    -0.9780 C.ar  1 <1>   0.0820 
 19 C       -6.0100    -8.1310     0.7960 C.ar  1 <1>  -0.1500 
 20 O       -6.5640    -5.9930    -2.1550 O.3   1 <1>  -0.3620 
 21 C       -6.5440    -7.7360    -0.4280 C.ar  1 <1>   0.0820 
 22 C       -7.9190    -6.1180    -2.5290 C.3   1 <1>   0.0400 
 23 O       -7.4420    -8.5130    -1.0980 O.3   1 <1>  -0.3630 
 24 C       -7.7560    -9.8250    -0.6840 C.3   1 <1>   0.0400 
 25 H        2.5510    -0.7890     1.1340 H     1 <1>   0.3700 
 26 H        0.3200    -3.5290     2.4650 H     1 <1>   0.0800 
 27 H       -0.0170    -3.3600     0.7620 H     1 <1>   0.0800 
 28 H        2.3470    -3.7580     0.9490 H     1 <1>   0.0800 
 29 H        3.8070    -2.8140     0.9640 H     1 <1>   0.0800 
 30 H       -1.9290    -1.8770     1.2790 H     1 <1>   0.0800 
 31 H       -1.6310    -2.0800     2.9830 H     1 <1>   0.0800 
 32 H        1.7530    -2.8060    -1.2620 H     1 <1>   0.0800 
 33 H        4.4970    -4.0870    -1.1930 H     1 <1>   0.0800 
 34 H        3.4230    -4.0440    -2.5700 H     1 <1>   0.0800 
 35 H        2.9710    -4.9400    -1.1460 H     1 <1>   0.0800 
 36 H        4.4860    -1.4840    -1.1420 H     1 <1>   0.0800 
 37 H        2.9470    -0.6540    -1.1690 H     1 <1>   0.0800 
 38 H        3.4670    -1.5590    -2.5590 H     1 <1>   0.0800 
 39 H       -4.8620    -4.8310    -0.7690 H     1 <1>   0.1500 
 40 H       -4.6780    -7.6790     2.3890 H     1 <1>   0.1500 
 41 H       -6.3080    -9.0480     1.2650 H     1 <1>   0.1500 
 42 H       -8.1470    -5.3350    -3.2280 H     1 <1>   0.0800 
 43 H       -8.5370    -6.0240    -1.6540 H     1 <1>   0.0800 
 44 H       -8.0620    -7.0750    -2.9970 H     1 <1>   0.0800 
 45 H       -8.4210   -10.2530    -1.4120 H     1 <1>   0.0800 
 46 H       -8.2430    -9.7830     0.2740 H     1 <1>   0.0800 
 47 H       -6.8500   -10.4020    -0.6340 H     1 <1>   0.0800 
@<TRIPOS>BOND
  1   1   2  2   
  2   2   3  am  
  3   2   4  1   
  4   3   5  1   
  5   3  25  1   
  6   4   6  1   
  7   4  26  1   
  8   4  27  1   
  9   5   7  1   
 10   5  28  1   
 11   5  29  1   
 12   6   8  1   
 13   6  30  1   
 14   6  31  1   
 15   7   9  1   
 16   7  10  1   
 17   7  32  1   
 18   8  11  1   
 19   8  12  2   
 20   9  33  1   
 21   9  34  1   
 22   9  35  1   
 23  10  36  1   
 24  10  37  1   
 25  10  38  1   
 26  11  13  1   
 27  12  14  1   
 28  13  14  2   
 29  14  15  1   
 30  15  16  ar  
 31  15  17  ar  
 32  16  18  ar  
 33  16  39  1   
 34  17  19  ar  
 35  17  40  1   
 36  18  20  1   
 37  18  21  ar  
 38  19  21  ar  
 39  19  41  1   
 40  20  22  1   
 41  21  23  1   
 42  22  42  1   
 43  22  43  1   
 44  22  44  1   
 45  23  24  1   
 46  24  45  1   
 47  24  46  1   
 48  24  47  1   
@<TRIPOS>SUBSTRUCTURE
  1 ****  12 GROUP 4 **** **** 0

# MOE 2024.06 (io_trps.svl 2023.06)
