@<TRIPOS>MOLECULE
N-(4-Ethyl-5-mercapto-4H-[1,2,4]triazol-3-ylmethyl)-3-methyl-benzamide
35 36 1 0 0 
SMALL
USER_CHARGES


@<TRIPOS>ATOM
  1 S       -0.1350     1.5570     0.3120 S.3   1 <1>  -0.9360 
  2 C       -1.5380     0.8040     0.0060 C.cat 1 <1>   0.7360 
  3 N       -1.6720    -0.5000    -0.0770 N.pl3 1 <1>  -0.3930 
  4 N       -2.7170     1.3630    -0.2000 N.pl3 1 <1>  -0.7640 
  5 N       -2.9670    -0.8360    -0.3440 N.2   1 <1>  -0.2600 
  6 C       -3.5710     0.2980    -0.4110 C.2   1 <1>   0.4850 
  7 C       -2.9440     2.8240    -0.2180 C.3   1 <1>   0.3540 
  8 C       -5.0720     0.4300    -0.6870 C.3   1 <1>   0.3080 
  9 C       -3.6940     3.2400     1.0430 C.3   1 <1>  -0.2400 
 10 N       -5.3860     1.3520    -1.8170 N.am  1 <1>  -0.7300 
 11 C       -6.1130     2.4940    -1.7050 C.2   1 <1>   0.5440 
 12 O       -5.7260     3.4280    -2.3720 O.2   1 <1>  -0.5700 
 13 C       -7.2390     2.6240    -0.7970 C.ar  1 <1>   0.0860 
 14 C       -8.1450     1.5810    -0.6010 C.ar  1 <1>  -0.1500 
 15 C       -7.4450     3.8020    -0.0810 C.ar  1 <1>  -0.1500 
 16 C       -9.1990     1.6920     0.2910 C.ar  1 <1>  -0.1430 
 17 C       -8.4940     3.9240     0.8110 C.ar  1 <1>  -0.1500 
 18 C       -9.3670     2.8690     1.0000 C.ar  1 <1>  -0.1500 
 19 C      -10.1740     0.5460     0.4950 C.3   1 <1>  -0.0970 
 20 H       -0.8680    -1.1150     0.0530 H     1 <1>   0.4500 
 21 H       -3.4940     3.1020    -1.0980 H     1 <1>   0.0800 
 22 H       -2.0000     3.3440    -0.2560 H     1 <1>   0.0800 
 23 H       -5.5510     0.7720     0.2130 H     1 <1>   0.0800 
 24 H       -5.4670    -0.5440    -0.9190 H     1 <1>   0.0800 
 25 H       -4.6620     2.7800     1.0890 H     1 <1>   0.0800 
 26 H       -3.8250     4.3070     1.0420 H     1 <1>   0.0800 
 27 H       -3.1210     2.9710     1.9120 H     1 <1>   0.0800 
 28 H       -4.6770     1.3810    -2.5550 H     1 <1>   0.3700 
 29 H       -8.0220     0.6740    -1.1650 H     1 <1>   0.1500 
 30 H       -6.7730     4.6290    -0.2300 H     1 <1>   0.1500 
 31 H       -8.6350     4.8420     1.3570 H     1 <1>   0.1500 
 32 H      -10.1820     2.9700     1.6970 H     1 <1>   0.1500 
 33 H      -10.0140    -0.2320    -0.2290 H     1 <1>   0.0800 
 34 H      -11.1840     0.9020     0.3920 H     1 <1>   0.0800 
 35 H      -10.0520     0.1330     1.4800 H     1 <1>   0.0800 
@<TRIPOS>BOND
  1   1   2  1   
  2   2   3  ar  
  3   2   4  ar  
  4   3   5  1   
  5   3  20  1   
  6   4   6  1   
  7   4   7  1   
  8   5   6  2   
  9   6   8  1   
 10   7   9  1   
 11   7  21  1   
 12   7  22  1   
 13   8  10  1   
 14   8  23  1   
 15   8  24  1   
 16   9  25  1   
 17   9  26  1   
 18   9  27  1   
 19  10  11  am  
 20  10  28  1   
 21  11  12  2   
 22  11  13  1   
 23  13  14  ar  
 24  13  15  ar  
 25  14  16  ar  
 26  14  29  1   
 27  15  17  ar  
 28  15  30  1   
 29  16  18  ar  
 30  16  19  1   
 31  17  18  ar  
 32  17  31  1   
 33  18  32  1   
 34  19  33  1   
 35  19  34  1   
 36  19  35  1   
@<TRIPOS>SUBSTRUCTURE
  1 ****   8 GROUP 4 **** **** 0

# MOE 2024.06 (io_trps.svl 2023.06)
