@<TRIPOS>MOLECULE
2-[8-(3-Chloro-2-methyl-phenyl)-1-methyl-2,4-dioxo-1,4,5,6,7,8-hexahydro-2H-1,3,
48 51 1 0 0 
SMALL
USER_CHARGES


@<TRIPOS>ATOM
  1 CL      -2.7920    -2.0900    -2.0180 Cl    1 <1>  -0.1850 
  2 C       -3.4960    -1.4770    -0.5410 C.ar  1 <1>   0.1690 
  3 C       -4.1800    -0.2690    -0.5370 C.ar  1 <1>  -0.1520 
  4 C       -3.3550    -2.2430     0.6000 C.ar  1 <1>  -0.1580 
  5 C       -4.7610     0.1540     0.6610 C.ar  1 <1>   0.3040 
  6 C       -4.2650     0.5510    -1.8290 C.3   1 <1>  -0.1050 
  7 C       -3.9100    -1.8060     1.7880 C.ar  1 <1>  -0.1580 
  8 N       -5.5300     1.3220     0.7330 N.pl3 1 <1>  -0.5800 
  9 C       -4.6100    -0.6140     1.8110 C.ar  1 <1>  -0.1580 
 10 C       -6.7670     1.4100     0.2070 C.cat 1 <1>   1.0680 
 11 C       -4.9540     2.4940     1.4480 C.3   1 <1>   0.1600 
 12 N       -7.4570     0.4320    -0.3760 N.pl3 1 <1>  -0.7040 
 13 N       -7.4780     2.5300     0.2030 N.pl3 1 <1>  -0.7680 
 14 C       -5.5050     3.8060     0.8670 C.3   1 <1>  -0.1680 
 15 C       -8.6600     0.9440    -0.7610 C.2   1 <1>   0.4200 
 16 C       -8.7060     2.2480    -0.4100 C.2   1 <1>   0.2700 
 17 C       -7.0350     3.8120     0.7840 C.3   1 <1>   0.3470 
 18 N       -9.6920     0.2920    -1.4090 N.am  1 <1>  -0.4420 
 19 C       -9.8830     3.0040    -0.7090 C.2   1 <1>   0.6990 
 20 C      -10.8640     1.0000    -1.6390 C.2   1 <1>   0.6860 
 21 C       -9.5860    -1.1510    -1.7770 C.3   1 <1>   0.0520 
 22 O       -9.9410     4.2020    -0.4890 O.2   1 <1>  -0.5750 
 23 N      -10.9560     2.3360    -1.2760 N.am  1 <1>  -0.4260 
 24 O      -11.8150     0.4510    -2.1580 O.2   1 <1>  -0.5750 
 25 C      -12.3240     2.9090    -1.0640 C.3   1 <1>   0.1930 
 26 C      -12.8800     2.5030     0.3040 C.2   1 <1>   0.5640 
 27 O      -12.1230     2.1520     1.1770 O.2   1 <1>  -0.5750 
 28 N      -14.2080     2.5290     0.5390 N.am  1 <1>  -0.8030 
 29 H       -2.8110    -3.1720     0.5560 H     1 <1>   0.1420 
 30 H       -4.9920     0.1200    -2.4940 H     1 <1>   0.0720 
 31 H       -3.3120     0.5560    -2.3290 H     1 <1>   0.0720 
 32 H       -4.5240     1.5770    -1.6460 H     1 <1>   0.0720 
 33 H       -3.7960    -2.3950     2.6840 H     1 <1>   0.1420 
 34 H       -5.0460    -0.2820     2.7370 H     1 <1>   0.1420 
 35 H       -3.8800     2.4830     1.3570 H     1 <1>   0.0720 
 36 H       -5.2040     2.4230     2.4930 H     1 <1>   0.0720 
 37 H       -7.1200    -0.5210    -0.4840 H     1 <1>   0.4440 
 38 H       -5.0950     3.9600    -0.1160 H     1 <1>   0.0720 
 39 H       -5.1800     4.6320     1.4750 H     1 <1>   0.0720 
 40 H       -7.4640     3.9220     1.7670 H     1 <1>   0.0720 
 41 H       -7.3700     4.6340     0.1710 H     1 <1>   0.0720 
 42 H       -8.5900    -1.3820    -2.1100 H     1 <1>   0.0720 
 43 H      -10.2680    -1.3870    -2.5760 H     1 <1>   0.0720 
 44 H       -9.8310    -1.7600    -0.9240 H     1 <1>   0.0720 
 45 H      -12.9890     2.5640    -1.8350 H     1 <1>   0.0720 
 46 H      -12.2890     3.9820    -1.1200 H     1 <1>   0.0720 
 47 H      -14.5540     2.2410     1.4570 H     1 <1>   0.3640 
 48 H      -14.9220     2.7760    -0.1470 H     1 <1>   0.3640 
@<TRIPOS>BOND
  1   1   2  1   
  2   2   3  ar  
  3   2   4  ar  
  4   3   5  ar  
  5   3   6  1   
  6   4   7  ar  
  7   4  29  1   
  8   5   8  1   
  9   5   9  ar  
 10   6  30  1   
 11   6  31  1   
 12   6  32  1   
 13   7   9  ar  
 14   7  33  1   
 15   8  10  ar  
 16   8  11  1   
 17   9  34  1   
 18  10  12  ar  
 19  10  13  ar  
 20  11  14  1   
 21  11  35  1   
 22  11  36  1   
 23  12  15  1   
 24  12  37  1   
 25  13  16  1   
 26  13  17  1   
 27  14  17  1   
 28  14  38  1   
 29  14  39  1   
 30  15  16  2   
 31  15  18  1   
 32  16  19  1   
 33  17  40  1   
 34  17  41  1   
 35  18  20  am  
 36  18  21  1   
 37  19  22  2   
 38  19  23  am  
 39  20  23  am  
 40  20  24  2   
 41  21  42  1   
 42  21  43  1   
 43  21  44  1   
 44  23  25  1   
 45  25  26  1   
 46  25  45  1   
 47  25  46  1   
 48  26  27  2   
 49  26  28  am  
 50  28  47  1   
 51  28  48  1   
@<TRIPOS>SUBSTRUCTURE
  1 ****  12 GROUP 4 **** **** 0

# MOE 2024.06 (io_trps.svl 2023.06)
