@<TRIPOS>MOLECULE
2-[5-(3,5-Dimethoxy-phenyl)-[1,3,4]oxadiazol-2-ylsulfanyl]-1-(4-methyl-piperazin
49 51 1 0 0 
SMALL
USER_CHARGES


@<TRIPOS>ATOM
  1 S       -0.1290    -0.0530     0.6920 S.3   1 <1>  -0.2860 
  2 C       -1.8330    -0.5000     0.9820 C.2   1 <1>   0.5340 
  3 C        0.7870    -1.1740     1.8540 C.3   1 <1>   0.1310 
  4 O       -2.7640     0.1560     0.3900 O.3   1 <1>  -0.2800 
  5 N       -2.2450    -1.4430     1.7330 N.2   1 <1>  -0.3380 
  6 C        2.2910    -0.9630     1.7300 C.2   1 <1>   0.5690 
  7 C       -3.8540    -0.4240     0.8140 C.2   1 <1>   0.4250 
  8 N       -3.5720    -1.3970     1.6250 N.2   1 <1>  -0.3380 
  9 O        2.8750    -0.5890     2.7170 O.2   1 <1>  -0.5700 
 10 N        2.9770    -1.2020     0.5580 N.am  1 <1>  -0.6600 
 11 C       -5.1570     0.0310     0.3770 C.ar  1 <1>   0.0530 
 12 C        4.4090    -0.7800     0.4230 C.3   1 <1>   0.1400 
 13 C        2.3940    -1.8230    -0.6730 C.3   1 <1>   0.1400 
 14 C       -6.3190    -0.6170     0.7970 C.ar  1 <1>  -0.1500 
 15 C       -5.3040     1.1280    -0.4740 C.ar  1 <1>  -0.1500 
 16 C        5.2810    -1.9280    -0.1150 C.3   1 <1>   0.3430 
 17 C        3.3040    -2.9430    -1.2220 C.3   1 <1>   0.3430 
 18 C       -7.5750    -0.2000     0.3920 C.ar  1 <1>   0.0820 
 19 C       -6.5600     1.5590    -0.8890 C.ar  1 <1>   0.0820 
 20 N        4.7310    -2.4940    -1.3990 N.4   1 <1>  -0.9590 
 21 O       -8.6340    -0.9050     0.8630 O.3   1 <1>  -0.3630 
 22 C       -7.6920     0.8940    -0.4560 C.ar  1 <1>  -0.1500 
 23 O       -6.7590     2.6170    -1.7140 O.3   1 <1>  -0.3630 
 24 C        5.5910    -3.6100    -1.9010 C.3   1 <1>   0.2630 
 25 C       -9.9560    -0.5600     0.5110 C.3   1 <1>   0.0400 
 26 C       -5.6810     3.3740    -2.2200 C.3   1 <1>   0.0400 
 27 H        0.5140    -2.1860     1.6250 H     1 <1>   0.0800 
 28 H        0.4580    -0.9290     2.8480 H     1 <1>   0.0800 
 29 H        4.8060    -0.4650     1.3740 H     1 <1>   0.0800 
 30 H        4.4670     0.0650    -0.2410 H     1 <1>   0.0800 
 31 H        2.2640    -1.0610    -1.4230 H     1 <1>   0.0800 
 32 H        1.4260    -2.2420    -0.4650 H     1 <1>   0.0800 
 33 H       -6.2520    -1.4660     1.4540 H     1 <1>   0.1500 
 34 H       -4.4210     1.6380    -0.8060 H     1 <1>   0.1500 
 35 H        5.3260    -2.7000     0.6350 H     1 <1>   0.0800 
 36 H        6.2820    -1.5620    -0.2730 H     1 <1>   0.0800 
 37 H        2.9080    -3.2860    -2.1640 H     1 <1>   0.0800 
 38 H        3.2720    -3.7720    -0.5330 H     1 <1>   0.0800 
 39 H        4.7350    -1.7350    -2.0970 H     1 <1>   0.4500 
 40 H       -8.6460     1.2510    -0.7930 H     1 <1>   0.1500 
 41 H        5.6110    -4.4190    -1.1890 H     1 <1>   0.0800 
 42 H        6.6010    -3.2640    -2.0560 H     1 <1>   0.0800 
 43 H        5.2120    -3.9840    -2.8390 H     1 <1>   0.0800 
 44 H      -10.6210    -1.2500     0.9960 H     1 <1>   0.0800 
 45 H      -10.0640    -0.6370    -0.5570 H     1 <1>   0.0800 
 46 H      -10.1580     0.4410     0.8480 H     1 <1>   0.0800 
 47 H       -6.0840     4.1530    -2.8430 H     1 <1>   0.0800 
 48 H       -5.0460     2.7320    -2.8040 H     1 <1>   0.0800 
 49 H       -5.1420     3.8080    -1.3960 H     1 <1>   0.0800 
@<TRIPOS>BOND
  1   1   2  1   
  2   1   3  1   
  3   2   4  1   
  4   2   5  2   
  5   3   6  1   
  6   3  27  1   
  7   3  28  1   
  8   4   7  1   
  9   5   8  1   
 10   6   9  2   
 11   6  10  am  
 12   7   8  2   
 13   7  11  1   
 14  10  12  1   
 15  10  13  1   
 16  11  14  ar  
 17  11  15  ar  
 18  12  16  1   
 19  12  29  1   
 20  12  30  1   
 21  13  17  1   
 22  13  31  1   
 23  13  32  1   
 24  14  18  ar  
 25  14  33  1   
 26  15  19  ar  
 27  15  34  1   
 28  16  20  1   
 29  16  35  1   
 30  16  36  1   
 31  17  20  1   
 32  17  37  1   
 33  17  38  1   
 34  18  21  1   
 35  18  22  ar  
 36  19  22  ar  
 37  19  23  1   
 38  20  24  1   
 39  20  39  1   
 40  21  25  1   
 41  22  40  1   
 42  23  26  1   
 43  24  41  1   
 44  24  42  1   
 45  24  43  1   
 46  25  44  1   
 47  25  45  1   
 48  25  46  1   
 49  26  47  1   
 50  26  48  1   
 51  26  49  1   
@<TRIPOS>SUBSTRUCTURE
  1 ****   2 GROUP 4 **** **** 0

# MOE 2024.06 (io_trps.svl 2023.06)
