@<TRIPOS>MOLECULE
2-(4-Chloro-3-methyl-phenoxy)-1-(4-methyl-piperidin-1-yl)-ethanone
39 40 1 0 0 
SMALL
USER_CHARGES


@<TRIPOS>ATOM
  1 CL       0.0350     0.1190    -0.7270 Cl    1 <1>  -0.1770 
  2 C        1.7720    -0.0540    -0.8490 C.ar  1 <1>   0.1770 
  3 C        2.4700    -0.7940     0.0970 C.ar  1 <1>  -0.1440 
  4 C        2.4180     0.5620    -1.9050 C.ar  1 <1>  -0.1500 
  5 C        3.8470    -0.9090    -0.0320 C.ar  1 <1>  -0.1500 
  6 C        1.7450    -1.4690     1.2520 C.3   1 <1>  -0.0960 
  7 C        3.7910     0.4410    -2.0230 C.ar  1 <1>  -0.1500 
  8 C        4.5110    -0.2900    -1.0910 C.ar  1 <1>   0.0830 
  9 O        5.8520    -0.3510    -1.2790 O.3   1 <1>  -0.3630 
 10 C        6.6990    -1.0130    -0.3490 C.3   1 <1>   0.1810 
 11 C        8.1700    -0.8850    -0.7370 C.2   1 <1>   0.5690 
 12 O        8.7600    -1.9160    -0.9730 O.2   1 <1>  -0.5700 
 13 N        8.8050     0.3360    -0.7800 N.am  1 <1>  -0.6600 
 14 C        8.1470     1.6490    -0.5250 C.3   1 <1>   0.1400 
 15 C       10.2450     0.4450    -1.1490 C.3   1 <1>   0.1400 
 16 C        8.8940     2.3960     0.5840 C.3   1 <1>  -0.1600 
 17 C       11.0080     1.1820    -0.0450 C.3   1 <1>  -0.1600 
 18 C       10.3870     2.5550     0.2540 C.3   1 <1>  -0.0800 
 19 C       11.1250     3.2440     1.4070 C.3   1 <1>  -0.2400 
 20 H        1.8500     1.1260    -2.6230 H     1 <1>   0.1500 
 21 H        4.3860    -1.4840     0.6960 H     1 <1>   0.1500 
 22 H        1.0230    -2.1690     0.8720 H     1 <1>   0.0800 
 23 H        1.2330    -0.7320     1.8450 H     1 <1>   0.0800 
 24 H        2.4320    -2.0000     1.8860 H     1 <1>   0.0800 
 25 H        4.3110     0.9100    -2.8390 H     1 <1>   0.1500 
 26 H        6.4260    -2.0520    -0.3320 H     1 <1>   0.0800 
 27 H        6.5490    -0.5800     0.6220 H     1 <1>   0.0800 
 28 H        7.1200     1.5260    -0.2370 H     1 <1>   0.0800 
 29 H        8.1680     2.2290    -1.4330 H     1 <1>   0.0800 
 30 H       10.3270     0.9850    -2.0770 H     1 <1>   0.0800 
 31 H       10.6780    -0.5300    -1.2940 H     1 <1>   0.0800 
 32 H        8.7780     1.8520     1.5050 H     1 <1>   0.0800 
 33 H        8.4470     3.3650     0.7160 H     1 <1>   0.0800 
 34 H       12.0320     1.3050    -0.3510 H     1 <1>   0.0800 
 35 H       11.0020     0.5720     0.8410 H     1 <1>   0.0800 
 36 H       10.4790     3.1710    -0.6250 H     1 <1>   0.0800 
 37 H       11.0570     2.6560     2.3060 H     1 <1>   0.0800 
 38 H       10.7000     4.2130     1.5970 H     1 <1>   0.0800 
 39 H       12.1640     3.3730     1.1600 H     1 <1>   0.0800 
@<TRIPOS>BOND
  1   1   2  1   
  2   2   3  ar  
  3   2   4  ar  
  4   3   5  ar  
  5   3   6  1   
  6   4   7  ar  
  7   4  20  1   
  8   5   8  ar  
  9   5  21  1   
 10   6  22  1   
 11   6  23  1   
 12   6  24  1   
 13   7   8  ar  
 14   7  25  1   
 15   8   9  1   
 16   9  10  1   
 17  10  11  1   
 18  10  26  1   
 19  10  27  1   
 20  11  12  2   
 21  11  13  am  
 22  13  14  1   
 23  13  15  1   
 24  14  16  1   
 25  14  28  1   
 26  14  29  1   
 27  15  17  1   
 28  15  30  1   
 29  15  31  1   
 30  16  18  1   
 31  16  32  1   
 32  16  33  1   
 33  17  18  1   
 34  17  34  1   
 35  17  35  1   
 36  18  19  1   
 37  18  36  1   
 38  19  37  1   
 39  19  38  1   
 40  19  39  1   
@<TRIPOS>SUBSTRUCTURE
  1 ****   9 GROUP 4 **** **** 0

# MOE 2024.06 (io_trps.svl 2023.06)
