@<TRIPOS>MOLECULE
3,6-Dihydroxy-4-(4-hydroxy-3-methoxy-phenyl)-6-methyl-4,5,6,7-tetrahydro-1H-inda
45 47 1 0 0 
SMALL
USER_CHARGES


@<TRIPOS>ATOM
  1 O       -0.1760     1.6450     2.1930 O.2   1 <1>  -0.5700 
  2 C        0.2500     1.6610     1.0670 C.2   1 <1>   0.6590 
  3 O       -0.4990     1.2780     0.0360 O.3   1 <1>  -0.4300 
  4 C        1.6440     2.1870     0.7800 C.3   1 <1>  -0.0190 
  5 C       -1.8160     0.7990     0.2130 C.3   1 <1>   0.0400 
  6 C        1.6830     3.7380     0.8740 C.3   1 <1>   0.2800 
  7 C        2.2000     1.6480    -0.5610 C.3   1 <1>   0.2440 
  8 O        1.2470     4.1190     2.1290 O.3   1 <1>  -0.6800 
  9 C        3.1260     4.2840     0.7340 C.3   1 <1>   0.0200 
 10 C        0.7430     4.4270    -0.1260 C.3   1 <1>  -0.2400 
 11 C        2.4410     0.1390    -0.5160 C.ar  1 <1>  -0.1440 
 12 C        3.4790     2.3830    -0.9150 C.2   1 <1>  -0.1810 
 13 C        3.8740     3.5430    -0.3600 C.2   1 <1>  -0.3320 
 14 C        3.4620    -0.3930     0.2600 C.ar  1 <1>  -0.1500 
 15 C        1.6520    -0.7200    -1.2640 C.ar  1 <1>  -0.1500 
 16 C        4.4770     2.0900    -1.8350 C.2   1 <1>   0.3510 
 17 N        5.0420     3.8860    -0.9480 N.pl3 1 <1>   0.3000 
 18 C        3.7080    -1.7560     0.3060 C.ar  1 <1>   0.0830 
 19 C        1.8780    -2.0840    -1.2340 C.ar  1 <1>  -0.1500 
 20 O        4.5110     0.9840    -2.5950 O.3   1 <1>  -0.5120 
 21 N        5.4150     2.9760    -1.8750 N.2   1 <1>  -0.7070 
 22 O        4.7480    -2.1090     1.1160 O.3   1 <1>  -0.3630 
 23 C        2.8960    -2.6130    -0.4570 C.ar  1 <1>   0.0830 
 24 C        5.2350    -3.4270     1.2180 C.3   1 <1>   0.0400 
 25 O        3.0440    -3.9560    -0.4850 O.3   1 <1>  -0.5330 
 26 H        2.2850     1.8160     1.5580 H     1 <1>   0.0800 
 27 H       -2.2230     0.5500    -0.7510 H     1 <1>   0.0800 
 28 H       -2.4080     1.5690     0.6780 H     1 <1>   0.0800 
 29 H       -1.7870    -0.0750     0.8410 H     1 <1>   0.0800 
 30 H        1.5040     1.8670    -1.3520 H     1 <1>   0.0800 
 31 H        0.5090     3.5400     2.4280 H     1 <1>   0.4000 
 32 H        3.6570     4.1370     1.6590 H     1 <1>   0.0800 
 33 H        3.1030     5.3380     0.5200 H     1 <1>   0.0800 
 34 H        1.0580     4.2330    -1.1350 H     1 <1>   0.0800 
 35 H        0.7610     5.4920     0.0230 H     1 <1>   0.0800 
 36 H       -0.2700     4.0870    -0.0140 H     1 <1>   0.0800 
 37 H        4.0940     0.2530     0.8440 H     1 <1>   0.1500 
 38 H        0.8520    -0.3340    -1.8750 H     1 <1>   0.1500 
 39 H        5.6090     4.7190    -0.7470 H     1 <1>   0.2700 
 40 H        1.2520    -2.7310    -1.8220 H     1 <1>   0.1500 
 41 H        4.0420     0.2680    -2.1320 H     1 <1>   0.4500 
 42 H        6.0890    -3.4190     1.8700 H     1 <1>   0.0800 
 43 H        5.5220    -3.7700     0.2410 H     1 <1>   0.0800 
 44 H        4.4640    -4.0510     1.6340 H     1 <1>   0.0800 
 45 H        2.3930    -4.3990    -1.0570 H     1 <1>   0.4500 
@<TRIPOS>BOND
  1   1   2  2   
  2   2   3  1   
  3   2   4  1   
  4   3   5  1   
  5   4   6  1   
  6   4   7  1   
  7   4  26  1   
  8   5  27  1   
  9   5  28  1   
 10   5  29  1   
 11   6   8  1   
 12   6   9  1   
 13   6  10  1   
 14   7  11  1   
 15   7  12  1   
 16   7  30  1   
 17   8  31  1   
 18   9  13  1   
 19   9  32  1   
 20   9  33  1   
 21  10  34  1   
 22  10  35  1   
 23  10  36  1   
 24  11  14  ar  
 25  11  15  ar  
 26  12  13  2   
 27  12  16  1   
 28  13  17  1   
 29  14  18  ar  
 30  14  37  1   
 31  15  19  ar  
 32  15  38  1   
 33  16  20  1   
 34  16  21  2   
 35  17  21  1   
 36  17  39  1   
 37  18  22  1   
 38  18  23  ar  
 39  19  23  ar  
 40  19  40  1   
 41  20  41  1   
 42  22  24  1   
 43  23  25  1   
 44  24  42  1   
 45  24  43  1   
 46  24  44  1   
 47  25  45  1   
@<TRIPOS>SUBSTRUCTURE
  1 ****   7 GROUP 4 **** **** 0

# MOE 2024.06 (io_trps.svl 2023.06)
