@<TRIPOS>MOLECULE
2-[(Pyridin-3-ylmethyl)-amino]-succinic acid 1-isopropyl ester
36 36 1 0 0 
SMALL
USER_CHARGES


@<TRIPOS>ATOM
  1 O       -0.4120     0.5900    -0.7860 O.2   1 <1>  -0.5700 
  2 C       -0.2380     1.7110    -0.3620 C.2   1 <1>   0.6590 
  3 O        0.8110     2.0260     0.3860 O.3   1 <1>  -0.4300 
  4 C       -1.2490     2.8560    -0.6300 C.3   1 <1>   0.2510 
  5 C        1.9380     1.2000     0.4960 C.3   1 <1>   0.2000 
  6 N       -2.6690     2.4190    -0.6910 N.3   1 <1>  -0.9000 
  7 C       -0.9470     3.5720    -1.9400 C.3   1 <1>  -0.2660 
  8 C        1.7570     0.2920     1.7110 C.3   1 <1>  -0.2400 
  9 C        3.1450     2.1210     0.6440 C.3   1 <1>  -0.2400 
 10 C       -3.1370     1.8950     0.5850 C.3   1 <1>   0.2530 
 11 C        0.4390     4.1400    -1.8640 C.2   1 <1>   0.9060 
 12 C       -4.5390     1.3420     0.4130 C.ar  1 <1>  -0.1440 
 13 O        0.6220     5.1350    -1.1600 O.co2 1 <1>  -0.9000 
 14 O        1.3460     3.5700    -2.4740 O.co2 1 <1>  -0.9000 
 15 C       -5.5710     2.1740     0.0050 C.ar  1 <1>   0.1600 
 16 C       -4.8170     0.0130     0.6630 C.ar  1 <1>  -0.1500 
 17 N       -6.8340     1.8000    -0.1520 N.ar  1 <1>  -0.6200 
 18 C       -6.1230    -0.3960     0.4990 C.ar  1 <1>  -0.1500 
 19 C       -7.0770     0.5240     0.0980 C.ar  1 <1>   0.1600 
 20 H       -1.1440     3.5750     0.1660 H     1 <1>   0.0800 
 21 H        2.0350     0.6230    -0.4110 H     1 <1>   0.0800 
 22 H       -2.6960     1.6450    -1.3690 H     1 <1>   0.3600 
 23 H       -1.6310     4.3830    -2.0900 H     1 <1>   0.0800 
 24 H       -0.9960     2.8920    -2.7680 H     1 <1>   0.0800 
 25 H        1.6270     0.8810     2.6010 H     1 <1>   0.0800 
 26 H        2.6240    -0.3310     1.8310 H     1 <1>   0.0800 
 27 H        0.9010    -0.3420     1.5690 H     1 <1>   0.0800 
 28 H        3.0510     2.7280     1.5250 H     1 <1>   0.0800 
 29 H        3.2090     2.7630    -0.2190 H     1 <1>   0.0800 
 30 H        4.0480     1.5430     0.7080 H     1 <1>   0.0800 
 31 H       -3.1470     2.6850     1.3170 H     1 <1>   0.0800 
 32 H       -2.4810     1.1140     0.9320 H     1 <1>   0.0800 
 33 H       -5.3380     3.2050    -0.2050 H     1 <1>   0.1500 
 34 H       -4.0500    -0.6770     0.9730 H     1 <1>   0.1500 
 35 H       -6.4020    -1.4180     0.6780 H     1 <1>   0.1500 
 36 H       -8.0930     0.1920    -0.0250 H     1 <1>   0.1500 
@<TRIPOS>BOND
  1   1   2  2   
  2   2   3  1   
  3   2   4  1   
  4   3   5  1   
  5   4   6  1   
  6   4   7  1   
  7   4  20  1   
  8   5   8  1   
  9   5   9  1   
 10   5  21  1   
 11   6  10  1   
 12   6  22  1   
 13   7  11  1   
 14   7  23  1   
 15   7  24  1   
 16   8  25  1   
 17   8  26  1   
 18   8  27  1   
 19   9  28  1   
 20   9  29  1   
 21   9  30  1   
 22  10  12  1   
 23  10  31  1   
 24  10  32  1   
 25  11  13  ar  
 26  11  14  ar  
 27  12  15  ar  
 28  12  16  ar  
 29  15  17  ar  
 30  15  33  1   
 31  16  18  ar  
 32  16  34  1   
 33  17  19  ar  
 34  18  19  ar  
 35  18  35  1   
 36  19  36  1   
@<TRIPOS>SUBSTRUCTURE
  1 ****   6 GROUP 4 **** **** 0

# MOE 2024.06 (io_trps.svl 2023.06)
