@<TRIPOS>MOLECULE
N-[2-(4-Acetyl-piperazin-1-yl)-phenyl]-2-(2-chloro-phenoxy)-acetamide
49 51 1 0 0 
SMALL
USER_CHARGES


@<TRIPOS>ATOM
  1 CL       1.3620    -0.2090     1.9250 Cl    1 <1>  -0.1770 
  2 C        0.5160    -1.5520     1.1910 C.ar  1 <1>   0.1770 
  3 C        1.2150    -2.4970     0.4460 C.ar  1 <1>   0.0830 
  4 C       -0.8490    -1.6490     1.3830 C.ar  1 <1>  -0.1500 
  5 O        2.5560    -2.3370     0.2870 O.3   1 <1>  -0.3630 
  6 C        0.5080    -3.5630    -0.1080 C.ar  1 <1>  -0.1500 
  7 C       -1.5400    -2.7120     0.8270 C.ar  1 <1>  -0.1500 
  8 C        3.3890    -3.4520    -0.0120 C.3   1 <1>   0.1810 
  9 C       -0.8600    -3.6650     0.0860 C.ar  1 <1>  -0.1500 
 10 C        4.8590    -3.0620    -0.0750 C.2   1 <1>   0.5690 
 11 O        5.6600    -3.9380    -0.3000 O.2   1 <1>  -0.5700 
 12 N        5.1990    -1.7510     0.0910 N.am  1 <1>  -0.5470 
 13 C        6.3940    -1.0350    -0.0930 C.ar  1 <1>   0.1170 
 14 C        6.2890     0.3540    -0.2620 C.ar  1 <1>   0.1000 
 15 C        7.6450    -1.6360    -0.1080 C.ar  1 <1>  -0.1500 
 16 N        5.0220     0.9710    -0.2450 N.pl3 1 <1>  -0.8380 
 17 C        7.4470     1.0970    -0.4580 C.ar  1 <1>  -0.1500 
 18 C        8.7890    -0.8800    -0.2970 C.ar  1 <1>  -0.1500 
 19 C        4.8650     2.2520     0.5090 C.3   1 <1>   0.2090 
 20 C        4.2850     0.9860    -1.5450 C.3   1 <1>   0.2090 
 21 C        8.6900     0.4870    -0.4740 C.ar  1 <1>  -0.1500 
 22 C        3.3800     2.5890     0.7340 C.3   1 <1>   0.1400 
 23 C        2.7940     1.2880    -1.3230 C.3   1 <1>   0.1400 
 24 N        2.6070     2.5590    -0.5510 N.am  1 <1>  -0.6600 
 25 C        1.8030     3.5620    -1.0230 C.2   1 <1>   0.5690 
 26 O        1.2580     3.4970    -2.0980 O.2   1 <1>  -0.5700 
 27 C        1.5680     4.8080    -0.2030 C.3   1 <1>  -0.1790 
 28 H       -1.3610    -0.9020     1.9630 H     1 <1>   0.1500 
 29 H        0.9970    -4.3170    -0.6950 H     1 <1>   0.1500 
 30 H       -2.6040    -2.7980     0.9710 H     1 <1>   0.1500 
 31 H        3.1040    -3.8470    -0.9680 H     1 <1>   0.0800 
 32 H        3.2470    -4.1950     0.7510 H     1 <1>   0.0800 
 33 H       -1.4030    -4.4900    -0.3450 H     1 <1>   0.1500 
 34 H        4.4170    -1.1050     0.2530 H     1 <1>   0.3700 
 35 H        7.7340    -2.6980     0.0300 H     1 <1>   0.1500 
 36 H        7.3820     2.1570    -0.6060 H     1 <1>   0.1500 
 37 H        9.7530    -1.3600    -0.3070 H     1 <1>   0.1500 
 38 H        5.3250     3.0540    -0.0420 H     1 <1>   0.0800 
 39 H        5.3620     2.1670     1.4600 H     1 <1>   0.0800 
 40 H        4.3890     0.0300    -2.0300 H     1 <1>   0.0800 
 41 H        4.7080     1.7350    -2.1910 H     1 <1>   0.0800 
 42 H        9.5780     1.0760    -0.6260 H     1 <1>   0.1500 
 43 H        3.3130     3.5520     1.2030 H     1 <1>   0.0800 
 44 H        2.9640     1.8660     1.4100 H     1 <1>   0.0800 
 45 H        2.3490     0.4760    -0.7760 H     1 <1>   0.0800 
 46 H        2.3030     1.3480    -2.2780 H     1 <1>   0.0800 
 47 H        2.4870     5.3530    -0.0960 H     1 <1>   0.0800 
 48 H        1.1820     4.5420     0.7630 H     1 <1>   0.0800 
 49 H        0.8510     5.4360    -0.6980 H     1 <1>   0.0800 
@<TRIPOS>BOND
  1   1   2  1   
  2   2   3  ar  
  3   2   4  ar  
  4   3   5  1   
  5   3   6  ar  
  6   4   7  ar  
  7   4  28  1   
  8   5   8  1   
  9   6   9  ar  
 10   6  29  1   
 11   7   9  ar  
 12   7  30  1   
 13   8  10  1   
 14   8  31  1   
 15   8  32  1   
 16   9  33  1   
 17  10  11  2   
 18  10  12  am  
 19  12  13  1   
 20  12  34  1   
 21  13  14  ar  
 22  13  15  ar  
 23  14  16  1   
 24  14  17  ar  
 25  15  18  ar  
 26  15  35  1   
 27  16  19  1   
 28  16  20  1   
 29  17  21  ar  
 30  17  36  1   
 31  18  21  ar  
 32  18  37  1   
 33  19  22  1   
 34  19  38  1   
 35  19  39  1   
 36  20  23  1   
 37  20  40  1   
 38  20  41  1   
 39  21  42  1   
 40  22  24  1   
 41  22  43  1   
 42  22  44  1   
 43  23  24  1   
 44  23  45  1   
 45  23  46  1   
 46  24  25  am  
 47  25  26  2   
 48  25  27  1   
 49  27  47  1   
 50  27  48  1   
 51  27  49  1   
@<TRIPOS>SUBSTRUCTURE
  1 ****  16 GROUP 4 **** **** 0

# MOE 2024.06 (io_trps.svl 2023.06)
