@<TRIPOS>MOLECULE
4-(4-Methyl-piperazin-1-yl)-3-(2-m-tolyloxy-acetylamino)-benzoic acid methyl est
57 59 1 0 0 
SMALL
USER_CHARGES


@<TRIPOS>ATOM
  1 O       -0.2080    -0.6390    -0.5640 O.2   1 <1>  -0.5700 
  2 C       -0.4880    -1.8090    -0.4000 C.2   1 <1>   0.6340 
  3 O       -1.7790    -2.1620    -0.3930 O.3   1 <1>  -0.4300 
  4 C        0.5020    -2.8500    -0.2120 C.ar  1 <1>   0.0860 
  5 C       -2.8100    -1.2100    -0.5710 C.3   1 <1>   0.0400 
  6 C        1.8690    -2.5600    -0.2290 C.ar  1 <1>  -0.1500 
  7 C        0.1420    -4.1850    -0.0040 C.ar  1 <1>  -0.1500 
  8 C        2.8290    -3.5410    -0.0520 C.ar  1 <1>   0.1170 
  9 C        1.0890    -5.1740     0.1760 C.ar  1 <1>  -0.1500 
 10 N        4.2070    -3.2930    -0.0640 N.am  1 <1>  -0.5470 
 11 C        2.4450    -4.8750     0.1530 C.ar  1 <1>   0.1000 
 12 C        5.0040    -2.2180    -0.3160 C.2   1 <1>   0.5690 
 13 N        3.4130    -5.8740     0.3320 N.pl3 1 <1>  -0.8380 
 14 O        4.5850    -1.1270    -0.6110 O.2   1 <1>  -0.5700 
 15 C        6.5110    -2.4300    -0.2290 C.3   1 <1>   0.1810 
 16 C        3.9360    -6.0670     1.7260 C.3   1 <1>   0.2090 
 17 C        3.2930    -7.1290    -0.4740 C.3   1 <1>   0.2090 
 18 O        6.8450    -3.7140     0.3080 O.3   1 <1>  -0.3630 
 19 C        4.9170    -7.2610     1.8390 C.3   1 <1>   0.3430 
 20 C        4.6360    -7.8930    -0.5680 C.3   1 <1>   0.3430 
 21 C        7.1780    -4.7280    -0.5230 C.ar  1 <1>   0.0830 
 22 N        5.6110    -7.5640     0.5370 N.4   1 <1>  -0.9590 
 23 C        8.2240    -5.5490    -0.1340 C.ar  1 <1>  -0.1500 
 24 C        6.5190    -4.9680    -1.7230 C.ar  1 <1>  -0.1500 
 25 C        6.6600    -8.6130     0.6810 C.3   1 <1>   0.2630 
 26 C        8.6290    -6.6020    -0.9390 C.ar  1 <1>  -0.1430 
 27 C        6.9180    -6.0220    -2.5250 C.ar  1 <1>  -0.1500 
 28 C        7.9690    -6.8350    -2.1350 C.ar  1 <1>  -0.1500 
 29 C        9.8110    -7.4670    -0.5360 C.3   1 <1>  -0.0970 
 30 H       -3.7560    -1.7180    -0.5290 H     1 <1>   0.0800 
 31 H       -2.6840    -0.7370    -1.5300 H     1 <1>   0.0800 
 32 H       -2.7450    -0.4770     0.2140 H     1 <1>   0.0800 
 33 H        2.1740    -1.5400    -0.3850 H     1 <1>   0.1500 
 34 H       -0.9010    -4.4510     0.0200 H     1 <1>   0.1500 
 35 H        0.7670    -6.1850     0.3410 H     1 <1>   0.1500 
 36 H        4.7200    -4.1580     0.1170 H     1 <1>   0.3700 
 37 H        6.9260    -1.6880     0.4270 H     1 <1>   0.0800 
 38 H        6.9610    -2.3200    -1.1990 H     1 <1>   0.0800 
 39 H        3.1140    -6.2110     2.4060 H     1 <1>   0.0800 
 40 H        4.4470    -5.1700     2.0310 H     1 <1>   0.0800 
 41 H        2.9460    -6.8930    -1.4660 H     1 <1>   0.0800 
 42 H        2.5580    -7.7700    -0.0180 H     1 <1>   0.0800 
 43 H        4.3610    -8.1290     2.1530 H     1 <1>   0.0800 
 44 H        5.6410    -7.0450     2.6070 H     1 <1>   0.0800 
 45 H        5.0940    -7.6620    -1.5150 H     1 <1>   0.0800 
 46 H        4.4230    -8.9490    -0.5660 H     1 <1>   0.0800 
 47 H        6.0710    -6.6840     0.2350 H     1 <1>   0.4500 
 48 H        8.7340    -5.3400     0.7900 H     1 <1>   0.1500 
 49 H        5.7080    -4.3420    -2.0520 H     1 <1>   0.1500 
 50 H        6.2200    -9.5450     0.9970 H     1 <1>   0.0800 
 51 H        7.3930    -8.3080     1.4090 H     1 <1>   0.0800 
 52 H        7.1610    -8.7660    -0.2610 H     1 <1>   0.0800 
 53 H        6.4220    -6.2000    -3.4660 H     1 <1>   0.1500 
 54 H        8.2840    -7.6390    -2.7800 H     1 <1>   0.1500 
 55 H        9.9240    -7.4890     0.5340 H     1 <1>   0.0800 
 56 H       10.7120    -7.0650    -0.9640 H     1 <1>   0.0800 
 57 H        9.6870    -8.4750    -0.8900 H     1 <1>   0.0800 
@<TRIPOS>BOND
  1   1   2  2   
  2   2   3  1   
  3   2   4  1   
  4   3   5  1   
  5   4   6  ar  
  6   4   7  ar  
  7   5  30  1   
  8   5  31  1   
  9   5  32  1   
 10   6   8  ar  
 11   6  33  1   
 12   7   9  ar  
 13   7  34  1   
 14   8  10  1   
 15   8  11  ar  
 16   9  11  ar  
 17   9  35  1   
 18  10  12  am  
 19  10  36  1   
 20  11  13  1   
 21  12  14  2   
 22  12  15  1   
 23  13  16  1   
 24  13  17  1   
 25  15  18  1   
 26  15  37  1   
 27  15  38  1   
 28  16  19  1   
 29  16  39  1   
 30  16  40  1   
 31  17  20  1   
 32  17  41  1   
 33  17  42  1   
 34  18  21  1   
 35  19  22  1   
 36  19  43  1   
 37  19  44  1   
 38  20  22  1   
 39  20  45  1   
 40  20  46  1   
 41  21  23  ar  
 42  21  24  ar  
 43  22  25  1   
 44  22  47  1   
 45  23  26  ar  
 46  23  48  1   
 47  24  27  ar  
 48  24  49  1   
 49  25  50  1   
 50  25  51  1   
 51  25  52  1   
 52  26  28  ar  
 53  26  29  1   
 54  27  28  ar  
 55  27  53  1   
 56  28  54  1   
 57  29  55  1   
 58  29  56  1   
 59  29  57  1   
@<TRIPOS>SUBSTRUCTURE
  1 ****  10 GROUP 4 **** **** 0

# MOE 2024.06 (io_trps.svl 2023.06)
