@<TRIPOS>MOLECULE
5-Methyl-3-phenyl-isoxazole-4-carboxylic acid (3-isopropoxy-propyl)-amide
44 45 1 0 0 
SMALL
USER_CHARGES


@<TRIPOS>ATOM
  1 O       -0.7710    -0.7320    -1.7030 O.2   1 <1>  -0.5700 
  2 C       -0.4770    -1.1620    -0.6070 C.2   1 <1>   0.7160 
  3 N        0.7360    -0.8440    -0.0700 N.am  1 <1>  -0.7300 
  4 C       -1.3780    -1.9910     0.1400 C.2   1 <1>  -0.0860 
  5 C        1.7430     0.0460    -0.6830 C.3   1 <1>   0.1400 
  6 C       -2.7180    -1.7360     0.4220 C.2   1 <1>   0.2350 
  7 C       -1.1860    -3.1850     0.7340 C.2   1 <1>  -0.0400 
  8 C        2.1910     1.0750     0.3520 C.3   1 <1>  -0.1600 
  9 N       -3.1960    -2.7200     1.1110 N.2   1 <1>  -0.4100 
 10 C       -3.4910    -0.5710     0.0380 C.ar  1 <1>   0.0540 
 11 O       -2.2700    -3.6230     1.3210 O.3   1 <1>  -0.0190 
 12 C        0.0500    -4.0630     0.7920 C.3   1 <1>  -0.0600 
 13 C        3.2070     2.0420    -0.2500 C.3   1 <1>   0.1200 
 14 C       -4.8030    -0.7140    -0.4130 C.ar  1 <1>  -0.1500 
 15 C       -2.9770     0.7240     0.1150 C.ar  1 <1>  -0.1500 
 16 O        3.6040     2.9080     0.7610 O.3   1 <1>  -0.5600 
 17 C       -5.5650     0.3800    -0.7800 C.ar  1 <1>  -0.1500 
 18 C       -3.7330     1.8230    -0.2520 C.ar  1 <1>  -0.1500 
 19 C        4.5200     3.8840     0.3910 C.3   1 <1>   0.2000 
 20 C       -5.0300     1.6530    -0.7020 C.ar  1 <1>  -0.1500 
 21 C        5.9300     3.2990     0.4820 C.3   1 <1>  -0.2400 
 22 C        4.3410     5.0420     1.3660 C.3   1 <1>  -0.2400 
 23 H        0.9390    -1.1590     0.8800 H     1 <1>   0.3700 
 24 H        1.3210     0.5460    -1.5400 H     1 <1>   0.0800 
 25 H        2.5830    -0.5430    -1.0110 H     1 <1>   0.0800 
 26 H        2.6450     0.5720     1.1870 H     1 <1>   0.0800 
 27 H        1.3390     1.6370     0.6900 H     1 <1>   0.0800 
 28 H        0.8530    -3.6380     0.2180 H     1 <1>   0.0800 
 29 H       -0.1800    -5.0340     0.3910 H     1 <1>   0.0800 
 30 H        0.3680    -4.1770     1.8130 H     1 <1>   0.0800 
 31 H        2.7620     2.6160    -1.0450 H     1 <1>   0.0800 
 32 H        4.0690     1.5100    -0.6140 H     1 <1>   0.0800 
 33 H       -5.2260    -1.7010    -0.4740 H     1 <1>   0.1500 
 34 H       -1.9740     0.8780     0.4680 H     1 <1>   0.1500 
 35 H       -6.5740     0.2410    -1.1280 H     1 <1>   0.1500 
 36 H       -3.3120     2.8110    -0.1880 H     1 <1>   0.1500 
 37 H        4.3030     4.2190    -0.6110 H     1 <1>   0.0800 
 38 H       -5.6190     2.5060    -0.9890 H     1 <1>   0.1500 
 39 H        6.1060     2.9100     1.4690 H     1 <1>   0.0800 
 40 H        6.6560     4.0660     0.2830 H     1 <1>   0.0800 
 41 H        6.0670     2.5170    -0.2400 H     1 <1>   0.0800 
 42 H        4.5280     4.7140     2.3730 H     1 <1>   0.0800 
 43 H        3.3390     5.4250     1.2980 H     1 <1>   0.0800 
 44 H        5.0260     5.8350     1.1280 H     1 <1>   0.0800 
@<TRIPOS>BOND
  1   1   2  2   
  2   2   3  am  
  3   2   4  1   
  4   3   5  1   
  5   3  23  1   
  6   4   6  1   
  7   4   7  2   
  8   5   8  1   
  9   5  24  1   
 10   5  25  1   
 11   6   9  2   
 12   6  10  1   
 13   7  11  1   
 14   7  12  1   
 15   8  13  1   
 16   8  26  1   
 17   8  27  1   
 18   9  11  1   
 19  10  14  ar  
 20  10  15  ar  
 21  12  28  1   
 22  12  29  1   
 23  12  30  1   
 24  13  16  1   
 25  13  31  1   
 26  13  32  1   
 27  14  17  ar  
 28  14  33  1   
 29  15  18  ar  
 30  15  34  1   
 31  16  19  1   
 32  17  20  ar  
 33  17  35  1   
 34  18  20  ar  
 35  18  36  1   
 36  19  21  1   
 37  19  22  1   
 38  19  37  1   
 39  20  38  1   
 40  21  39  1   
 41  21  40  1   
 42  21  41  1   
 43  22  42  1   
 44  22  43  1   
 45  22  44  1   
@<TRIPOS>SUBSTRUCTURE
  1 ****   2 GROUP 4 **** **** 0

# MOE 2024.06 (io_trps.svl 2023.06)
