@<TRIPOS>MOLECULE
1,6,7-Trimethyl-3-(2-oxo-propyl)-8-o-tolyl-1H,8H-imidazo[2,1-f]purine-2,4-dione
50 53 1 0 0 
SMALL
USER_CHARGES


@<TRIPOS>ATOM
  1 O        0.9850    -0.0250    -0.4170 O.2   1 <1>  -0.5750 
  2 C        1.9100     0.6570    -0.0260 C.2   1 <1>   0.6860 
  3 N        1.6740     1.9560     0.4030 N.am  1 <1>  -0.4260 
  4 N        3.2000     0.1430    -0.0180 N.am  1 <1>  -0.4420 
  5 C        2.6970     2.7500     0.8950 C.2   1 <1>   0.6990 
  6 C        0.4730     2.6600    -0.1470 C.3   1 <1>   0.1940 
  7 C        4.2300     0.9820     0.3600 C.2   1 <1>   0.4200 
  8 C        3.4650    -1.2460    -0.4950 C.3   1 <1>   0.0520 
  9 O        2.4460     3.8430     1.3760 O.2   1 <1>  -0.5750 
 10 C        4.0290     2.2450     0.8150 C.2   1 <1>   0.2700 
 11 C        0.7930     3.2620    -1.5150 C.2   1 <1>   0.4430 
 12 N        5.5680     0.7160     0.3420 N.pl3 1 <1>  -0.7040 
 13 N        5.3010     2.7690     1.0940 N.pl3 1 <1>  -0.6330 
 14 O        1.9030     3.2530    -1.9650 O.2   1 <1>  -0.5750 
 15 C       -0.3580     3.8760    -2.2800 C.3   1 <1>  -0.1860 
 16 C        6.1730     1.8220     0.7830 C.cat 1 <1>   1.0690 
 17 C        6.0360     3.8620     1.5050 C.2   1 <1>   0.2340 
 18 N        7.4340     2.2120     0.9750 N.pl3 1 <1>  -0.5550 
 19 C        7.3440     3.5200     1.4330 C.2   1 <1>   0.1580 
 20 C        5.3430     5.1440     1.9240 C.3   1 <1>  -0.1090 
 21 C        8.5780     1.4460     0.7000 C.ar  1 <1>   0.3050 
 22 C        8.5960     4.3180     1.7540 C.3   1 <1>  -0.1090 
 23 C        9.0900     1.3530    -0.5940 C.ar  1 <1>  -0.1510 
 24 C        9.1860     0.7510     1.7350 C.ar  1 <1>  -0.1570 
 25 C       10.1970     0.5520    -0.8270 C.ar  1 <1>  -0.1570 
 26 C        8.4720     2.1130    -1.7650 C.3   1 <1>  -0.1040 
 27 C       10.2900    -0.0450     1.4930 C.ar  1 <1>  -0.1570 
 28 C       10.7920    -0.1450     0.2090 C.ar  1 <1>  -0.1570 
 29 H        0.1680     3.4430     0.5240 H     1 <1>   0.0720 
 30 H       -0.3500     1.9740    -0.2410 H     1 <1>   0.0720 
 31 H        2.5980    -1.8670    -0.3440 H     1 <1>   0.0720 
 32 H        4.2850    -1.6820     0.0470 H     1 <1>   0.0720 
 33 H        3.6960    -1.2300    -1.5470 H     1 <1>   0.0720 
 34 H        6.0540    -0.1230     0.0300 H     1 <1>   0.4450 
 35 H       -1.1070     3.1310    -2.4790 H     1 <1>   0.0720 
 36 H       -0.0040     4.2680    -3.2170 H     1 <1>   0.0720 
 37 H       -0.7930     4.6780    -1.7120 H     1 <1>   0.0720 
 38 H        4.7550     5.5260     1.1090 H     1 <1>   0.0720 
 39 H        6.0580     5.8920     2.2120 H     1 <1>   0.0720 
 40 H        4.6910     4.9540     2.7580 H     1 <1>   0.0720 
 41 H        9.1550     3.8300     2.5320 H     1 <1>   0.0720 
 42 H        8.3470     5.3100     2.0830 H     1 <1>   0.0720 
 43 H        9.2180     4.3940     0.8800 H     1 <1>   0.0720 
 44 H        8.7990     0.8300     2.7350 H     1 <1>   0.1430 
 45 H       10.6110     0.4630    -1.8180 H     1 <1>   0.1430 
 46 H        7.5150     1.6970    -2.0210 H     1 <1>   0.0720 
 47 H        9.1050     2.0570    -2.6330 H     1 <1>   0.0720 
 48 H        8.3500     3.1520    -1.5150 H     1 <1>   0.0720 
 49 H       10.7620    -0.5840     2.2980 H     1 <1>   0.1430 
 50 H       11.6530    -0.7640     0.0160 H     1 <1>   0.1430 
@<TRIPOS>BOND
  1   1   2  2   
  2   2   3  am  
  3   2   4  am  
  4   3   5  am  
  5   3   6  1   
  6   4   7  1   
  7   4   8  1   
  8   5   9  2   
  9   5  10  1   
 10   6  11  1   
 11   6  29  1   
 12   6  30  1   
 13   7  10  2   
 14   7  12  1   
 15   8  31  1   
 16   8  32  1   
 17   8  33  1   
 18  10  13  1   
 19  11  14  2   
 20  11  15  1   
 21  12  16  ar  
 22  12  34  1   
 23  13  16  ar  
 24  13  17  1   
 25  15  35  1   
 26  15  36  1   
 27  15  37  1   
 28  16  18  ar  
 29  17  19  2   
 30  17  20  1   
 31  18  19  1   
 32  18  21  1   
 33  19  22  1   
 34  20  38  1   
 35  20  39  1   
 36  20  40  1   
 37  21  23  ar  
 38  21  24  ar  
 39  22  41  1   
 40  22  42  1   
 41  22  43  1   
 42  23  25  ar  
 43  23  26  1   
 44  24  27  ar  
 45  24  44  1   
 46  25  28  ar  
 47  25  45  1   
 48  26  46  1   
 49  26  47  1   
 50  26  48  1   
 51  27  28  ar  
 52  27  49  1   
 53  28  50  1   
@<TRIPOS>SUBSTRUCTURE
  1 ****  16 GROUP 4 **** **** 0

# MOE 2024.06 (io_trps.svl 2023.06)
