@<TRIPOS>MOLECULE
1-(5-Chloro-2-methoxy-benzenesulfonyl)-piperidine-4-carboxylic acid
36 37 1 0 0 
SMALL
USER_CHARGES


@<TRIPOS>ATOM
  1 CL       0.4550     0.5600    -1.9230 Cl    1 <1>  -0.1770 
  2 C        0.3600     2.1570    -1.2260 C.ar  1 <1>   0.1770 
  3 C        1.3320     2.5690    -0.3360 C.ar  1 <1>  -0.1500 
  4 C       -0.6850     2.9860    -1.5760 C.ar  1 <1>  -0.1500 
  5 C        1.2810     3.8340     0.2410 C.ar  1 <1>  -0.0090 
  6 C       -0.7500     4.2510    -1.0230 C.ar  1 <1>  -0.1500 
  7 S        2.5900     4.3260     1.4030 S.o2  1 <1>   1.4470 
  8 C        0.2290     4.6790    -0.1230 C.ar  1 <1>   0.0830 
  9 O        2.1860     5.3610     2.3320 O.2   1 <1>  -0.6500 
 10 O        3.1380     3.1090     1.9660 O.2   1 <1>  -0.6500 
 11 N        3.7920     4.9810     0.4040 N.am  1 <1>  -0.8490 
 12 O        0.1970     5.9220     0.4160 O.3   1 <1>  -0.3630 
 13 C        5.0890     5.0310     1.0920 C.3   1 <1>   0.1960 
 14 C        3.4240     6.3070    -0.1120 C.3   1 <1>   0.1960 
 15 C       -0.8990     6.7960     0.2620 C.3   1 <1>   0.0400 
 16 C        6.1960     5.5180     0.1520 C.3   1 <1>  -0.1600 
 17 C        4.4750     6.8300    -1.0930 C.3   1 <1>  -0.1600 
 18 C        5.8630     6.8990    -0.4360 C.3   1 <1>  -0.1860 
 19 C        6.9380     7.3920    -1.4000 C.2   1 <1>   0.9060 
 20 O        7.1650     6.7550    -2.4340 O.co2 1 <1>  -0.9000 
 21 O        7.5500     8.4250    -1.1090 O.co2 1 <1>  -0.9000 
 22 H        2.1360     1.8970    -0.0910 H     1 <1>   0.1500 
 23 H       -1.4310     2.6420    -2.2700 H     1 <1>   0.1500 
 24 H       -1.5660     4.8880    -1.3090 H     1 <1>   0.1500 
 25 H        5.3520     4.0480     1.4440 H     1 <1>   0.0800 
 26 H        5.0210     5.6870     1.9450 H     1 <1>   0.0800 
 27 H        3.3170     7.0030     0.7050 H     1 <1>   0.0800 
 28 H        2.4830     6.2480    -0.6290 H     1 <1>   0.0800 
 29 H       -0.7060     7.6760     0.8480 H     1 <1>   0.0800 
 30 H       -1.7900     6.3090     0.6190 H     1 <1>   0.0800 
 31 H       -0.9920     7.0630    -0.7760 H     1 <1>   0.0800 
 32 H        6.3220     4.8070    -0.6460 H     1 <1>   0.0800 
 33 H        7.1260     5.5750     0.6880 H     1 <1>   0.0800 
 34 H        4.1970     7.8100    -1.4360 H     1 <1>   0.0800 
 35 H        4.5160     6.1810    -1.9520 H     1 <1>   0.0800 
 36 H        5.8230     7.6100     0.3680 H     1 <1>   0.0800 
@<TRIPOS>BOND
  1   1   2  1   
  2   2   3  ar  
  3   2   4  ar  
  4   3   5  ar  
  5   3  22  1   
  6   4   6  ar  
  7   4  23  1   
  8   5   7  1   
  9   5   8  ar  
 10   6   8  ar  
 11   6  24  1   
 12   7   9  2   
 13   7  10  2   
 14   7  11  am  
 15   8  12  1   
 16  11  13  1   
 17  11  14  1   
 18  12  15  1   
 19  13  16  1   
 20  13  25  1   
 21  13  26  1   
 22  14  17  1   
 23  14  27  1   
 24  14  28  1   
 25  15  29  1   
 26  15  30  1   
 27  15  31  1   
 28  16  18  1   
 29  16  32  1   
 30  16  33  1   
 31  17  18  1   
 32  17  34  1   
 33  17  35  1   
 34  18  19  1   
 35  18  36  1   
 36  19  20  ar  
 37  19  21  ar  
@<TRIPOS>SUBSTRUCTURE
  1 ****  11 GROUP 4 **** **** 0

# MOE 2024.06 (io_trps.svl 2023.06)
