@<TRIPOS>MOLECULE
4-(3-Chloro-2-methyl-phenyl)-piperazine-1-sulfonic acid dimethylamide
40 41 1 0 0 
SMALL
USER_CHARGES


@<TRIPOS>ATOM
  1 CL      -0.2360     1.0440     0.1720 Cl    1 <1>  -0.1770 
  2 C        1.1150     1.9470    -0.4810 C.ar  1 <1>   0.1770 
  3 C        2.3830     1.8290     0.0730 C.ar  1 <1>  -0.1440 
  4 C        0.8570     2.7670    -1.5640 C.ar  1 <1>  -0.1500 
  5 C        3.4300     2.5560    -0.5070 C.ar  1 <1>   0.1000 
  6 C        2.5910     0.9150     1.2810 C.3   1 <1>  -0.0960 
  7 C        1.8910     3.4920    -2.1250 C.ar  1 <1>  -0.1500 
  8 N        4.7500     2.5070    -0.0670 N.pl3 1 <1>  -0.8380 
  9 C        3.1620     3.3800    -1.5950 C.ar  1 <1>  -0.1500 
 10 C        5.1790     3.3660     1.0760 C.3   1 <1>   0.2090 
 11 C        5.5450     1.2510    -0.2120 C.3   1 <1>   0.2090 
 12 C        6.7010     3.6020     1.0480 C.3   1 <1>   0.1960 
 13 C        7.0550     1.5530    -0.2060 C.3   1 <1>   0.1960 
 14 N        7.4570     2.3390     0.9740 N.am  1 <1>  -0.8490 
 15 S        9.1260     2.5550     1.0920 S.o2  1 <1>   1.5760 
 16 O        9.3890     3.3870     2.2460 O.2   1 <1>  -0.6500 
 17 O        9.7570     1.2620     0.9430 O.2   1 <1>  -0.6500 
 18 N        9.4120     3.4670    -0.3150 N.am  1 <1>  -0.8490 
 19 C        9.9250     4.8130    -0.0430 C.3   1 <1>   0.1160 
 20 C       10.2640     2.7820    -1.2910 C.3   1 <1>   0.1160 
 21 H       -0.1400     2.8310    -1.9600 H     1 <1>   0.1500 
 22 H        1.7650     0.9950     1.9640 H     1 <1>   0.0800 
 23 H        3.4760     1.1730     1.8270 H     1 <1>   0.0800 
 24 H        2.6730    -0.1050     0.9530 H     1 <1>   0.0800 
 25 H        1.7080     4.1360    -2.9680 H     1 <1>   0.1500 
 26 H        3.9750     3.9350    -2.0260 H     1 <1>   0.1500 
 27 H        4.9180     2.8910     2.0050 H     1 <1>   0.0800 
 28 H        4.6650     4.3100     1.0260 H     1 <1>   0.0800 
 29 H        5.2760     0.7630    -1.1320 H     1 <1>   0.0800 
 30 H        5.3230     0.5840     0.6010 H     1 <1>   0.0800 
 31 H        6.9810     4.1370     1.9390 H     1 <1>   0.0800 
 32 H        6.9360     4.2200     0.1990 H     1 <1>   0.0800 
 33 H        7.3000     2.0910    -1.1060 H     1 <1>   0.0800 
 34 H        7.5910     0.6200    -0.2170 H     1 <1>   0.0800 
 35 H        9.2420     5.3460     0.5970 H     1 <1>   0.0800 
 36 H       10.0280     5.3650    -0.9620 H     1 <1>   0.0800 
 37 H       10.8830     4.7570     0.4470 H     1 <1>   0.0800 
 38 H        9.8290     1.8340    -1.5590 H     1 <1>   0.0800 
 39 H       11.2430     2.6060    -0.8760 H     1 <1>   0.0800 
 40 H       10.3580     3.3750    -2.1840 H     1 <1>   0.0800 
@<TRIPOS>BOND
  1   1   2  1   
  2   2   3  ar  
  3   2   4  ar  
  4   3   5  ar  
  5   3   6  1   
  6   4   7  ar  
  7   4  21  1   
  8   5   8  1   
  9   5   9  ar  
 10   6  22  1   
 11   6  23  1   
 12   6  24  1   
 13   7   9  ar  
 14   7  25  1   
 15   8  10  1   
 16   8  11  1   
 17   9  26  1   
 18  10  12  1   
 19  10  27  1   
 20  10  28  1   
 21  11  13  1   
 22  11  29  1   
 23  11  30  1   
 24  12  14  1   
 25  12  31  1   
 26  12  32  1   
 27  13  14  1   
 28  13  33  1   
 29  13  34  1   
 30  14  15  am  
 31  15  16  2   
 32  15  17  2   
 33  15  18  am  
 34  18  19  1   
 35  18  20  1   
 36  19  35  1   
 37  19  36  1   
 38  19  37  1   
 39  20  38  1   
 40  20  39  1   
 41  20  40  1   
@<TRIPOS>SUBSTRUCTURE
  1 ****   8 GROUP 4 **** **** 0

# MOE 2024.06 (io_trps.svl 2023.06)
