@<TRIPOS>MOLECULE
4-Chloro-5-dimethylsulfamoyl-2-morpholin-4-yl-benzoic acid
38 39 1 0 0 
SMALL
USER_CHARGES


@<TRIPOS>ATOM
  1 CL      -0.3940     0.0270     1.1990 Cl    1 <1>  -0.1770 
  2 C       -0.4040    -1.6540     0.7180 C.ar  1 <1>   0.1770 
  3 C       -1.5910    -2.3580     0.5770 C.ar  1 <1>  -0.0090 
  4 C        0.8180    -2.2400     0.4720 C.ar  1 <1>  -0.1500 
  5 S       -3.1940    -1.5830     0.8570 S.o2  1 <1>   1.4470 
  6 C       -1.4930    -3.6810     0.1700 C.ar  1 <1>  -0.1500 
  7 C        0.9070    -3.5600     0.0610 C.ar  1 <1>   0.1000 
  8 O       -4.2640    -2.5330     0.6310 O.2   1 <1>  -0.6500 
  9 O       -3.2010    -0.8430     2.1010 O.2   1 <1>  -0.6500 
 10 N       -3.3110    -0.4570    -0.4120 N.am  1 <1>  -0.8490 
 11 C       -0.2730    -4.3020    -0.1010 C.ar  1 <1>  -0.1790 
 12 N        2.1770    -4.0630    -0.1730 N.pl3 1 <1>  -0.8380 
 13 C       -3.4630    -1.0900    -1.7270 C.3   1 <1>   0.1160 
 14 C       -4.3810     0.5150    -0.1860 C.3   1 <1>   0.1160 
 15 C       -0.2810    -5.6730    -0.5500 C.2   1 <1>   0.9790 
 16 C        2.6730    -5.1240     0.7480 C.3   1 <1>   0.2090 
 17 C        2.5250    -4.4290    -1.5750 C.3   1 <1>   0.2090 
 18 O       -0.2160    -6.6090     0.2660 O.co2 1 <1>  -0.9000 
 19 O       -0.4090    -5.9300    -1.7610 O.co2 1 <1>  -0.9000 
 20 C        4.1930    -5.2900     0.5670 C.3   1 <1>   0.1200 
 21 C        4.0490    -4.6130    -1.6940 C.3   1 <1>   0.1200 
 22 O        4.5340    -5.5570    -0.7710 O.3   1 <1>  -0.5600 
 23 H        1.7220    -1.6740     0.5910 H     1 <1>   0.1500 
 24 H       -2.3890    -4.2680     0.0450 H     1 <1>   0.1500 
 25 H       -2.6460    -1.7680    -1.9110 H     1 <1>   0.0800 
 26 H       -3.4590    -0.3410    -2.5000 H     1 <1>   0.0800 
 27 H       -4.3880    -1.6420    -1.7770 H     1 <1>   0.0800 
 28 H       -4.2020     1.0470     0.7340 H     1 <1>   0.0800 
 29 H       -5.3320     0.0140    -0.1170 H     1 <1>   0.0800 
 30 H       -4.4100     1.2300    -0.9890 H     1 <1>   0.0800 
 31 H        2.1890    -6.0610     0.5320 H     1 <1>   0.0800 
 32 H        2.4450    -4.8560     1.7640 H     1 <1>   0.0800 
 33 H        2.1890    -3.6570    -2.2440 H     1 <1>   0.0800 
 34 H        2.0380    -5.3480    -1.8530 H     1 <1>   0.0800 
 35 H        4.5450    -6.1110     1.1640 H     1 <1>   0.0800 
 36 H        4.6990    -4.3920     0.8740 H     1 <1>   0.0800 
 37 H        4.5460    -3.6760    -1.5140 H     1 <1>   0.0800 
 38 H        4.3010    -4.9600    -2.6790 H     1 <1>   0.0800 
@<TRIPOS>BOND
  1   1   2  1   
  2   2   3  ar  
  3   2   4  ar  
  4   3   5  1   
  5   3   6  ar  
  6   4   7  ar  
  7   4  23  1   
  8   5   8  2   
  9   5   9  2   
 10   5  10  am  
 11   6  11  ar  
 12   6  24  1   
 13   7  11  ar  
 14   7  12  1   
 15  10  13  1   
 16  10  14  1   
 17  11  15  1   
 18  12  16  1   
 19  12  17  1   
 20  13  25  1   
 21  13  26  1   
 22  13  27  1   
 23  14  28  1   
 24  14  29  1   
 25  14  30  1   
 26  15  18  ar  
 27  15  19  ar  
 28  16  20  1   
 29  16  31  1   
 30  16  32  1   
 31  17  21  1   
 32  17  33  1   
 33  17  34  1   
 34  20  22  1   
 35  20  35  1   
 36  20  36  1   
 37  21  22  1   
 38  21  37  1   
 39  21  38  1   
@<TRIPOS>SUBSTRUCTURE
  1 ****  11 GROUP 4 **** **** 0

# MOE 2024.06 (io_trps.svl 2023.06)
