@<TRIPOS>MOLECULE
1-Benzyl-4-(3-chloro-4-methoxy-benzenesulfonyl)-piperazine
47 49 1 0 0 
SMALL
USER_CHARGES


@<TRIPOS>ATOM
  1 CL       3.1150     1.6240    -2.9230 Cl    1 <1>  -0.1770 
  2 C        2.3530     1.9540    -1.3830 C.ar  1 <1>   0.1770 
  3 C        2.2640     0.9630    -0.4120 C.ar  1 <1>   0.0820 
  4 C        1.8530     3.2230    -1.1660 C.ar  1 <1>  -0.1500 
  5 O        2.7750    -0.2650    -0.6900 O.3   1 <1>  -0.3630 
  6 C        1.6530     1.2810     0.7970 C.ar  1 <1>  -0.1500 
  7 C        1.2500     3.5510     0.0410 C.ar  1 <1>  -0.0090 
  8 C        2.6550    -1.3440     0.2100 C.3   1 <1>   0.0400 
  9 C        1.1570     2.5570     1.0120 C.ar  1 <1>  -0.1500 
 10 S        0.6170     5.2240     0.3350 S.o2  1 <1>   1.4470 
 11 O       -0.2860     5.6080    -0.7240 O.2   1 <1>  -0.6500 
 12 O        0.2300     5.3990     1.7170 O.2   1 <1>  -0.6500 
 13 N        1.9890     6.2070     0.1390 N.am  1 <1>  -0.8490 
 14 C        1.5900     7.6260    -0.0130 C.3   1 <1>   0.1960 
 15 C        2.9550     6.0670     1.2530 C.3   1 <1>   0.1960 
 16 C        2.7970     8.5900    -0.1390 C.3   1 <1>   0.3430 
 17 C        4.2200     6.9400     1.0560 C.3   1 <1>   0.3430 
 18 N        4.1040     7.8500    -0.1400 N.4   1 <1>  -0.9590 
 19 C        5.2920     8.7240    -0.3390 C.3   1 <1>   0.4860 
 20 C        6.5250     7.8470    -0.4360 C.ar  1 <1>  -0.1430 
 21 C        6.7320     7.0440    -1.5490 C.ar  1 <1>  -0.1500 
 22 C        7.4520     7.8340     0.5970 C.ar  1 <1>  -0.1500 
 23 C        7.8460     6.2270    -1.6210 C.ar  1 <1>  -0.1500 
 24 C        8.5670     7.0180     0.5220 C.ar  1 <1>  -0.1500 
 25 C        8.7620     6.2120    -0.5850 C.ar  1 <1>  -0.1500 
 26 H        1.9340     3.9580    -1.9480 H     1 <1>   0.1500 
 27 H        1.5540     0.5510     1.5790 H     1 <1>   0.1500 
 28 H        3.1070    -2.2070    -0.2440 H     1 <1>   0.0800 
 29 H        1.6120    -1.5340     0.3930 H     1 <1>   0.0800 
 30 H        3.1700    -1.1000     1.1220 H     1 <1>   0.0800 
 31 H        0.6840     2.7830     1.9550 H     1 <1>   0.1500 
 32 H        0.9840     7.9280     0.8260 H     1 <1>   0.0800 
 33 H        0.9800     7.7330    -0.8960 H     1 <1>   0.0800 
 34 H        3.2580     5.0370     1.3460 H     1 <1>   0.0800 
 35 H        2.4870     6.3460     2.1840 H     1 <1>   0.0800 
 36 H        2.7710     9.2860     0.6830 H     1 <1>   0.0800 
 37 H        2.6930     9.1580    -1.0490 H     1 <1>   0.0800 
 38 H        5.0720     6.2900     0.9330 H     1 <1>   0.0800 
 39 H        4.3870     7.5200     1.9490 H     1 <1>   0.0800 
 40 H        4.0570     7.2030    -0.9400 H     1 <1>   0.4500 
 41 H        5.3950     9.4090     0.4860 H     1 <1>   0.0800 
 42 H        5.1880     9.2940    -1.2480 H     1 <1>   0.0800 
 43 H        6.0390     7.0420    -2.3740 H     1 <1>   0.1500 
 44 H        7.3260     8.4560     1.4670 H     1 <1>   0.1500 
 45 H        8.0060     5.6020    -2.4840 H     1 <1>   0.1500 
 46 H        9.2890     7.0080     1.3220 H     1 <1>   0.1500 
 47 H        9.6310     5.5770    -0.6440 H     1 <1>   0.1500 
@<TRIPOS>BOND
  1   1   2  1   
  2   2   3  ar  
  3   2   4  ar  
  4   3   5  1   
  5   3   6  ar  
  6   4   7  ar  
  7   4  26  1   
  8   5   8  1   
  9   6   9  ar  
 10   6  27  1   
 11   7   9  ar  
 12   7  10  1   
 13   8  28  1   
 14   8  29  1   
 15   8  30  1   
 16   9  31  1   
 17  10  11  2   
 18  10  12  2   
 19  10  13  am  
 20  13  14  1   
 21  13  15  1   
 22  14  16  1   
 23  14  32  1   
 24  14  33  1   
 25  15  17  1   
 26  15  34  1   
 27  15  35  1   
 28  16  18  1   
 29  16  36  1   
 30  16  37  1   
 31  17  18  1   
 32  17  38  1   
 33  17  39  1   
 34  18  19  1   
 35  18  40  1   
 36  19  20  1   
 37  19  41  1   
 38  19  42  1   
 39  20  21  ar  
 40  20  22  ar  
 41  21  23  ar  
 42  21  43  1   
 43  22  24  ar  
 44  22  44  1   
 45  23  25  ar  
 46  23  45  1   
 47  24  25  ar  
 48  24  46  1   
 49  25  47  1   
@<TRIPOS>SUBSTRUCTURE
  1 ****  15 GROUP 4 **** **** 0

# MOE 2024.06 (io_trps.svl 2023.06)
