@<TRIPOS>MOLECULE
(4-Methylamino-6-piperidin-1-yl-[1,3,5]triazin-2-yloxy)-acetonitrile
34 35 1 0 0 
SMALL
USER_CHARGES


@<TRIPOS>ATOM
  1 O        0.5230    -0.3670     0.1260 O.3   1 <1>  -0.3620 
  2 C        0.4130    -1.7000     0.0200 C.ar  1 <1>   0.7020 
  3 C        1.7840     0.2790     0.1660 C.3   1 <1>   0.3200 
  4 N        1.5070    -2.4030    -0.0790 N.ar  1 <1>  -0.6200 
  5 N       -0.8060    -2.1490     0.0350 N.ar  1 <1>  -0.6200 
  6 C        2.4130     0.3440    -1.1900 C.1   1 <1>   0.3570 
  7 C        1.3000    -3.6930    -0.1920 C.ar  1 <1>   0.7200 
  8 C       -0.8720    -3.4500    -0.0640 C.ar  1 <1>   0.7200 
  9 N        2.9220     0.4170    -2.2060 N.1   1 <1>  -0.5570 
 10 N        0.1280    -4.2730    -0.1800 N.ar  1 <1>  -0.6200 
 11 N        2.4100    -4.4900    -0.3370 N.pl3 1 <1>  -0.8380 
 12 N       -2.0900    -4.0390    -0.0550 N.pl3 1 <1>  -0.8690 
 13 C        3.6400    -4.0220    -1.0370 C.3   1 <1>   0.2090 
 14 C        2.4010    -5.9390     0.0020 C.3   1 <1>   0.2090 
 15 C       -3.4100    -3.3610    -0.1060 C.3   1 <1>   0.1290 
 16 C        4.8660    -4.3340    -0.1750 C.3   1 <1>  -0.1600 
 17 C        3.6280    -6.2720     0.8580 C.3   1 <1>  -0.1600 
 18 C        4.9360    -5.8240     0.1890 C.3   1 <1>  -0.1600 
 19 H        2.4240    -0.2370     0.8590 H     1 <1>   0.0800 
 20 H        1.6190     1.2780     0.5250 H     1 <1>   0.0800 
 21 H       -2.0630    -5.0430    -0.2330 H     1 <1>   0.4000 
 22 H        3.5990    -2.9660    -1.2410 H     1 <1>   0.0800 
 23 H        3.7190    -4.5350    -1.9800 H     1 <1>   0.0800 
 24 H        2.4170    -6.5130    -0.9080 H     1 <1>   0.0800 
 25 H        1.5100    -6.2000     0.5490 H     1 <1>   0.0800 
 26 H       -3.3270    -2.3380     0.2180 H     1 <1>   0.0800 
 27 H       -4.1030    -3.8700     0.5400 H     1 <1>   0.0800 
 28 H       -3.7870    -3.3780    -1.1140 H     1 <1>   0.0800 
 29 H        4.8140    -3.7420     0.7220 H     1 <1>   0.0800 
 30 H        5.7550    -4.0480    -0.7080 H     1 <1>   0.0800 
 31 H        3.6570    -7.3310     1.0390 H     1 <1>   0.0800 
 32 H        3.5220    -5.7800     1.8090 H     1 <1>   0.0800 
 33 H        5.7640    -5.9990     0.8550 H     1 <1>   0.0800 
 34 H        5.0960    -6.4030    -0.7040 H     1 <1>   0.0800 
@<TRIPOS>BOND
  1   1   2  1   
  2   1   3  1   
  3   2   4  ar  
  4   2   5  ar  
  5   3   6  1   
  6   3  19  1   
  7   3  20  1   
  8   4   7  ar  
  9   5   8  ar  
 10   6   9  3   
 11   7  10  ar  
 12   7  11  1   
 13   8  10  ar  
 14   8  12  1   
 15  11  13  1   
 16  11  14  1   
 17  12  15  1   
 18  12  21  1   
 19  13  16  1   
 20  13  22  1   
 21  13  23  1   
 22  14  17  1   
 23  14  24  1   
 24  14  25  1   
 25  15  26  1   
 26  15  27  1   
 27  15  28  1   
 28  16  18  1   
 29  16  29  1   
 30  16  30  1   
 31  17  18  1   
 32  17  31  1   
 33  17  32  1   
 34  18  33  1   
 35  18  34  1   
@<TRIPOS>SUBSTRUCTURE
  1 ****   7 GROUP 4 **** **** 0

# MOE 2024.06 (io_trps.svl 2023.06)
