@<TRIPOS>MOLECULE
5-Methyl-2-[(2-methyl-5-oxo-pyrazolidine-3-carbonyl)-amino]-thiophene-3-carboxyl
35 36 1 0 0 
SMALL
USER_CHARGES


@<TRIPOS>ATOM
  1 S       -0.0470    -0.2610     0.4240 S.3   1 <1>  -0.0800 
  2 C        0.6280     1.3040    -0.0100 C.2   1 <1>   0.1040 
  3 C       -1.6450     0.1990    -0.1330 C.2   1 <1>  -0.1400 
  4 N        1.9720     1.5630     0.2080 N.am  1 <1>  -0.4940 
  5 C       -0.3400     2.1090    -0.5490 C.2   1 <1>  -0.0860 
  6 C       -1.6230     1.4550    -0.6060 C.2   1 <1>  -0.1500 
  7 C       -2.7450    -0.8330    -0.0010 C.3   1 <1>  -0.0600 
  8 C        3.0030     0.8450     0.7590 C.2   1 <1>   0.5690 
  9 C       -0.1640     3.4540    -1.0190 C.2   1 <1>   0.8060 
 10 O        2.8870    -0.2500     1.2520 O.2   1 <1>  -0.5700 
 11 C        4.3960     1.4890     0.7350 C.3   1 <1>   0.2510 
 12 O       -1.0660     4.1240    -1.4860 O.2   1 <1>  -0.5700 
 13 O        1.0590     4.0010    -0.9370 O.3   1 <1>  -0.4300 
 14 N        4.3230     2.9830     0.4080 N.3   1 <1>  -0.5490 
 15 C        5.2900     0.8200    -0.3320 C.3   1 <1>  -0.0990 
 16 C        1.3110     5.3270    -1.3610 C.3   1 <1>   0.0400 
 17 N        4.8790     3.0150    -0.9410 N.am  1 <1>  -0.4210 
 18 C        5.3100     3.6930     1.2690 C.3   1 <1>   0.0300 
 19 C        5.4000     1.8700    -1.3880 C.2   1 <1>   0.5690 
 20 O        5.8790     1.6890    -2.4840 O.2   1 <1>  -0.5700 
 21 H        2.2900     2.4950    -0.0900 H     1 <1>   0.3700 
 22 H       -2.4780     1.9740    -1.0080 H     1 <1>   0.1500 
 23 H       -2.4900    -1.7120    -0.5650 H     1 <1>   0.0800 
 24 H       -3.6720    -0.4370    -0.3720 H     1 <1>   0.0800 
 25 H       -2.8690    -1.1040     1.0320 H     1 <1>   0.0800 
 26 H        4.8280     1.3370     1.7090 H     1 <1>   0.0800 
 27 H        4.8540    -0.0790    -0.7270 H     1 <1>   0.0800 
 28 H        6.2630     0.6030     0.0660 H     1 <1>   0.0800 
 29 H        2.3470     5.5510    -1.1820 H     1 <1>   0.0800 
 30 H        0.6850     5.9990    -0.7990 H     1 <1>   0.0800 
 31 H        1.0900     5.4060    -2.4120 H     1 <1>   0.0800 
 32 H        4.7670     3.8300    -1.5540 H     1 <1>   0.3700 
 33 H        5.0070     3.6270     2.3000 H     1 <1>   0.0800 
 34 H        5.3460     4.7320     0.9930 H     1 <1>   0.0800 
 35 H        6.2940     3.2690     1.1600 H     1 <1>   0.0800 
@<TRIPOS>BOND
  1   1   2  1   
  2   1   3  1   
  3   2   4  1   
  4   2   5  2   
  5   3   6  2   
  6   3   7  1   
  7   4   8  am  
  8   4  21  1   
  9   5   6  1   
 10   5   9  1   
 11   6  22  1   
 12   7  23  1   
 13   7  24  1   
 14   7  25  1   
 15   8  10  2   
 16   8  11  1   
 17   9  12  2   
 18   9  13  1   
 19  11  14  1   
 20  11  15  1   
 21  11  26  1   
 22  13  16  1   
 23  14  17  1   
 24  14  18  1   
 25  15  19  1   
 26  15  27  1   
 27  15  28  1   
 28  16  29  1   
 29  16  30  1   
 30  16  31  1   
 31  17  19  am  
 32  17  32  1   
 33  18  33  1   
 34  18  34  1   
 35  18  35  1   
 36  19  20  2   
@<TRIPOS>SUBSTRUCTURE
  1 ****   4 GROUP 4 **** **** 0

# MOE 2024.06 (io_trps.svl 2023.06)
