@<TRIPOS>MOLECULE
1-(3,5-Dimethyl-phenyl)-5-oxo-pyrrolidine-3-carboxylic acid (furan-2-ylmethyl)-a
43 45 1 0 0 
SMALL
USER_CHARGES


@<TRIPOS>ATOM
  1 O        0.5070    -0.0240     1.4100 O.2   1 <1>  -0.5700 
  2 C        1.5660    -0.2420     0.8760 C.2   1 <1>   0.5690 
  3 N        2.0410    -1.4470     0.4390 N.am  1 <1>  -0.4770 
  4 C        2.5450     0.8640     0.5970 C.3   1 <1>  -0.0990 
  5 C        1.4080    -2.7060     0.4680 C.ar  1 <1>   0.1170 
  6 C        3.3840    -1.2830    -0.1530 C.3   1 <1>   0.1400 
  7 C        3.5110     0.2260    -0.4110 C.3   1 <1>  -0.0190 
  8 C        0.0340    -2.8240     0.2880 C.ar  1 <1>  -0.1500 
  9 C        2.1460    -3.8710     0.6630 C.ar  1 <1>  -0.1500 
 10 C        4.9390     0.7560    -0.3170 C.2   1 <1>   0.5690 
 11 C       -0.5900    -4.0600     0.2960 C.ar  1 <1>  -0.1440 
 12 C        1.5370    -5.1150     0.6690 C.ar  1 <1>  -0.1440 
 13 O        5.7910     0.0870     0.2070 O.2   1 <1>  -0.5700 
 14 N        5.2760     1.9720    -0.8030 N.am  1 <1>  -0.7300 
 15 C        0.1680    -5.2030     0.4840 C.ar  1 <1>  -0.1500 
 16 C       -2.0920    -4.1660     0.1010 C.3   1 <1>  -0.0970 
 17 C        2.3510    -6.3780     0.8820 C.3   1 <1>  -0.0970 
 18 C        4.4010     3.0270    -1.3620 C.3   1 <1>   0.3200 
 19 C        3.8950     3.9410    -0.2610 C.2   1 <1>  -0.0400 
 20 O        3.0120     4.8660    -0.5810 O.3   1 <1>  -0.2800 
 21 C        4.1770     3.9990     1.0610 C.2   1 <1>  -0.1500 
 22 C        2.7090     5.5300     0.5170 C.2   1 <1>  -0.0100 
 23 C        3.3970     5.0430     1.5710 C.2   1 <1>  -0.1500 
 24 H        3.0440     1.1200     1.5140 H     1 <1>   0.0800 
 25 H        2.0440     1.7260     0.1960 H     1 <1>   0.0800 
 26 H        3.4740    -1.8470    -1.0660 H     1 <1>   0.0800 
 27 H        4.1150    -1.6250     0.5590 H     1 <1>   0.0800 
 28 H        3.1440     0.4020    -1.4050 H     1 <1>   0.0800 
 29 H       -0.5510    -1.9350     0.1410 H     1 <1>   0.1500 
 30 H        3.2050    -3.8040     0.8200 H     1 <1>   0.1500 
 31 H        6.2430     2.2560    -0.6360 H     1 <1>   0.3700 
 32 H       -0.3120    -6.1660     0.4890 H     1 <1>   0.1500 
 33 H       -2.5680    -3.2230     0.3010 H     1 <1>   0.0800 
 34 H       -2.5010    -4.9000     0.7720 H     1 <1>   0.0800 
 35 H       -2.3080    -4.4570    -0.9100 H     1 <1>   0.0800 
 36 H        3.4040    -6.1760     0.7960 H     1 <1>   0.0800 
 37 H        2.0850    -7.1160     0.1470 H     1 <1>   0.0800 
 38 H        2.1550    -6.7750     1.8620 H     1 <1>   0.0800 
 39 H        3.5610     2.5860    -1.8680 H     1 <1>   0.0800 
 40 H        4.9540     3.6080    -2.0800 H     1 <1>   0.0800 
 41 H        4.8510     3.3880     1.6360 H     1 <1>   0.1500 
 42 H        1.9960     6.3330     0.4590 H     1 <1>   0.1500 
 43 H        3.3740     5.3650     2.5980 H     1 <1>   0.1500 
@<TRIPOS>BOND
  1   1   2  2   
  2   2   3  am  
  3   2   4  1   
  4   3   5  1   
  5   3   6  1   
  6   4   7  1   
  7   4  24  1   
  8   4  25  1   
  9   5   8  ar  
 10   5   9  ar  
 11   6   7  1   
 12   6  26  1   
 13   6  27  1   
 14   7  10  1   
 15   7  28  1   
 16   8  11  ar  
 17   8  29  1   
 18   9  12  ar  
 19   9  30  1   
 20  10  13  2   
 21  10  14  am  
 22  11  15  ar  
 23  11  16  1   
 24  12  15  ar  
 25  12  17  1   
 26  14  18  1   
 27  14  31  1   
 28  15  32  1   
 29  16  33  1   
 30  16  34  1   
 31  16  35  1   
 32  17  36  1   
 33  17  37  1   
 34  17  38  1   
 35  18  19  1   
 36  18  39  1   
 37  18  40  1   
 38  19  20  1   
 39  19  21  2   
 40  20  22  1   
 41  21  23  1   
 42  21  41  1   
 43  22  23  2   
 44  22  42  1   
 45  23  43  1   
@<TRIPOS>SUBSTRUCTURE
  1 ****   2 GROUP 4 **** **** 0

# MOE 2024.06 (io_trps.svl 2023.06)
