@<TRIPOS>MOLECULE
Furan-2-carboxylic acid {1-[3-(4-tert-butyl-phenyl)-[1,2,4]oxadiazol-5-yl]-ethyl
46 48 1 0 0 
SMALL
USER_CHARGES


@<TRIPOS>ATOM
  1 O       -4.5740    -0.0270    -2.5850 O.2   1 <1>  -0.5700 
  2 C       -4.2930     0.2270    -1.4310 C.2   1 <1>   0.7150 
  3 N       -5.1890    -0.2080    -0.5060 N.am  1 <1>  -0.7300 
  4 C       -3.0690     0.9410    -1.1210 C.2   1 <1>   0.0550 
  5 C       -4.9370    -0.5330     0.9120 C.3   1 <1>   0.4000 
  6 O       -2.7640     1.3500     0.1100 O.3   1 <1>  -0.2800 
  7 C       -2.0610     1.3220    -1.9540 C.2   1 <1>  -0.1500 
  8 C       -5.5460    -1.8920     1.2650 C.2   1 <1>   0.2980 
  9 C       -5.5470     0.5810     1.7630 C.3   1 <1>  -0.2400 
 10 C       -1.6060     1.9700     0.0800 C.2   1 <1>  -0.0100 
 11 C       -1.1130     1.9870    -1.1750 C.2   1 <1>  -0.1500 
 12 O       -5.2050    -2.4400     2.4010 O.3   1 <1>  -0.0190 
 13 N       -6.3670    -2.5660     0.5620 N.2   1 <1>  -0.5650 
 14 N       -5.8620    -3.5560     2.4250 N.2   1 <1>  -0.4100 
 15 C       -6.5500    -3.6370     1.3400 C.2   1 <1>   0.4620 
 16 C       -7.4250    -4.7360     0.9690 C.ar  1 <1>   0.0540 
 17 C       -7.6370    -5.8180     1.8220 C.ar  1 <1>  -0.1500 
 18 C       -8.0940    -4.7650    -0.2540 C.ar  1 <1>  -0.1500 
 19 C       -8.4680    -6.8680     1.4760 C.ar  1 <1>  -0.1500 
 20 C       -8.9260    -5.8140    -0.6010 C.ar  1 <1>  -0.1500 
 21 C       -9.1330    -6.8900     0.2540 C.ar  1 <1>  -0.1430 
 22 C      -10.0710    -8.0380    -0.1790 C.3   1 <1>   0.1440 
 23 C      -10.1940    -9.1490     0.8770 C.3   1 <1>  -0.2400 
 24 C       -9.5350    -8.6790    -1.4670 C.3   1 <1>  -0.2400 
 25 C      -11.4800    -7.4810    -0.4330 C.3   1 <1>  -0.2400 
 26 H       -5.9620    -0.7530    -0.8960 H     1 <1>   0.3700 
 27 H       -3.8770    -0.5910     1.0900 H     1 <1>   0.0800 
 28 H       -1.9970     1.1500    -3.0150 H     1 <1>   0.1500 
 29 H       -6.6110     0.6260     1.6100 H     1 <1>   0.0800 
 30 H       -5.1100     1.5290     1.5070 H     1 <1>   0.0800 
 31 H       -5.3590     0.3910     2.8040 H     1 <1>   0.0800 
 32 H       -1.2000     2.3710     0.9930 H     1 <1>   0.1500 
 33 H       -0.1920     2.4140    -1.5320 H     1 <1>   0.1500 
 34 H       -7.1410    -5.8390     2.7760 H     1 <1>   0.1500 
 35 H       -7.9620    -3.9540    -0.9470 H     1 <1>   0.1500 
 36 H       -8.5790    -7.6640     2.1880 H     1 <1>   0.1500 
 37 H       -9.4140    -5.7800    -1.5580 H     1 <1>   0.1500 
 38 H      -10.5920    -8.7550     1.7950 H     1 <1>   0.0800 
 39 H       -9.2340    -9.5930     1.0720 H     1 <1>   0.0800 
 40 H      -10.8550    -9.9250     0.5340 H     1 <1>   0.0800 
 41 H       -8.5350    -9.0430    -1.3080 H     1 <1>   0.0800 
 42 H       -9.5100    -7.9700    -2.2730 H     1 <1>   0.0800 
 43 H      -10.1550    -9.5040    -1.7680 H     1 <1>   0.0800 
 44 H      -11.8500    -7.0000     0.4550 H     1 <1>   0.0800 
 45 H      -12.1570    -8.2710    -0.7020 H     1 <1>   0.0800 
 46 H      -11.4750    -6.7610    -1.2300 H     1 <1>   0.0800 
@<TRIPOS>BOND
  1   1   2  2   
  2   2   3  am  
  3   2   4  1   
  4   3   5  1   
  5   3  26  1   
  6   4   6  1   
  7   4   7  2   
  8   5   8  1   
  9   5   9  1   
 10   5  27  1   
 11   6  10  1   
 12   7  11  1   
 13   7  28  1   
 14   8  12  1   
 15   8  13  2   
 16   9  29  1   
 17   9  30  1   
 18   9  31  1   
 19  10  11  2   
 20  10  32  1   
 21  11  33  1   
 22  12  14  1   
 23  13  15  1   
 24  14  15  2   
 25  15  16  1   
 26  16  17  ar  
 27  16  18  ar  
 28  17  19  ar  
 29  17  34  1   
 30  18  20  ar  
 31  18  35  1   
 32  19  21  ar  
 33  19  36  1   
 34  20  21  ar  
 35  20  37  1   
 36  21  22  1   
 37  22  23  1   
 38  22  24  1   
 39  22  25  1   
 40  23  38  1   
 41  23  39  1   
 42  23  40  1   
 43  24  41  1   
 44  24  42  1   
 45  24  43  1   
 46  25  44  1   
 47  25  45  1   
 48  25  46  1   
@<TRIPOS>SUBSTRUCTURE
  1 ****  13 GROUP 4 **** **** 0

# MOE 2024.06 (io_trps.svl 2023.06)
