@<TRIPOS>MOLECULE
7-[3-(Benzooxazol-2-ylsulfanyl)-2-methyl-propyl]-3-methyl-8-pyrrolidin-1-yl-3,7-
56 60 1 0 0 
SMALL
USER_CHARGES


@<TRIPOS>ATOM
  1 S       -0.3100     0.0560     0.1290 S.3   1 <1>  -0.2920 
  2 C        0.4360     1.6640    -0.0730 C.2   1 <1>   0.5300 
  3 C       -1.9440     0.4490     0.8990 C.3   1 <1>   0.0630 
  4 O        1.6420     1.7070    -0.6040 O.3   1 <1>  -0.2860 
  5 N       -0.1120     2.7710     0.2520 N.2   1 <1>  -0.5690 
  6 C       -2.7730    -0.8400     0.9970 C.3   1 <1>  -0.0870 
  7 C        1.9240     2.9960    -0.6330 C.ar  1 <1>   0.1330 
  8 C        0.8460     3.6700    -0.1050 C.ar  1 <1>   0.2210 
  9 C       -3.0870    -1.3800    -0.4150 C.3   1 <1>   0.3490 
 10 C       -4.0420    -0.5590     1.8220 C.3   1 <1>  -0.2460 
 11 C        3.0590     3.6520    -1.0880 C.ar  1 <1>  -0.1570 
 12 C        0.8750     5.0580    -0.0160 C.ar  1 <1>  -0.1570 
 13 N       -3.8010    -2.6880    -0.3500 N.pl3 1 <1>  -0.7670 
 14 C        3.0850     5.0310    -0.9980 C.ar  1 <1>  -0.1570 
 15 C        1.9970     5.7300    -0.4640 C.ar  1 <1>  -0.1570 
 16 C       -3.3420    -3.9270    -0.1030 C.cat 1 <1>   1.0690 
 17 C       -5.2060    -2.7740    -0.4480 C.2   1 <1>   0.2710 
 18 N       -4.3780    -4.7660    -0.0220 N.pl3 1 <1>  -0.7030 
 19 N       -2.0670    -4.3540     0.0500 N.pl3 1 <1>  -0.5960 
 20 C       -6.2780    -1.8520    -0.7010 C.2   1 <1>   0.7000 
 21 C       -5.5240    -4.0700    -0.2340 C.2   1 <1>   0.4210 
 22 C       -1.7070    -5.7300     0.4900 C.3   1 <1>   0.1610 
 23 C       -0.8250    -3.5920    -0.2520 C.3   1 <1>   0.1610 
 24 O       -6.1220    -0.6670    -0.9160 O.2   1 <1>  -0.5740 
 25 N       -7.5470    -2.3520    -0.6990 N.am  1 <1>  -0.4950 
 26 N       -6.8210    -4.5630    -0.2390 N.am  1 <1>  -0.4410 
 27 C       -0.2050    -5.6990     0.7320 C.3   1 <1>  -0.1670 
 28 C        0.3040    -4.6120    -0.2040 C.3   1 <1>  -0.1670 
 29 C       -7.8490    -3.6640    -0.4800 C.2   1 <1>   0.6870 
 30 C       -7.1030    -6.0090     0.0060 C.3   1 <1>   0.0530 
 31 O       -9.0090    -4.0000    -0.5040 O.2   1 <1>  -0.5740 
 32 H       -2.4220     1.1940     0.2850 H     1 <1>   0.0730 
 33 H       -1.7330     0.8640     1.8700 H     1 <1>   0.0730 
 34 H       -2.1840    -1.5610     1.5340 H     1 <1>   0.0730 
 35 H       -2.1890    -1.4940    -0.9910 H     1 <1>   0.0730 
 36 H       -3.6870    -0.6590    -0.9420 H     1 <1>   0.0730 
 37 H       -4.6800     0.1450     1.3140 H     1 <1>   0.0730 
 38 H       -3.7770    -0.1400     2.7780 H     1 <1>   0.0730 
 39 H       -4.5950    -1.4620     2.0060 H     1 <1>   0.0730 
 40 H        3.8820     3.0910    -1.4930 H     1 <1>   0.1430 
 41 H        0.0290     5.5760     0.3970 H     1 <1>   0.1430 
 42 H        3.9470     5.5770    -1.3400 H     1 <1>   0.1430 
 43 H        2.0400     6.8040    -0.4040 H     1 <1>   0.1430 
 44 H       -4.2970    -5.7630     0.1480 H     1 <1>   0.4450 
 45 H       -1.9310    -6.4290    -0.3000 H     1 <1>   0.0730 
 46 H       -2.2320    -6.0080     1.3880 H     1 <1>   0.0730 
 47 H       -0.6610    -2.8480     0.5080 H     1 <1>   0.0730 
 48 H       -0.8680    -3.1310    -1.2240 H     1 <1>   0.0730 
 49 H       -8.3230    -1.7170    -0.8770 H     1 <1>   0.3650 
 50 H        0.2550    -6.6530     0.5380 H     1 <1>   0.0730 
 51 H       -0.0130    -5.4220     1.7540 H     1 <1>   0.0730 
 52 H        1.2250    -4.1740     0.1410 H     1 <1>   0.0730 
 53 H        0.4620    -5.0170    -1.1890 H     1 <1>   0.0730 
 54 H       -6.7140    -6.3010     0.9650 H     1 <1>   0.0730 
 55 H       -6.6480    -6.6060    -0.7650 H     1 <1>   0.0730 
 56 H       -8.1630    -6.2000     0.0000 H     1 <1>   0.0730 
@<TRIPOS>BOND
  1   1   2  1   
  2   1   3  1   
  3   2   4  1   
  4   2   5  2   
  5   3   6  1   
  6   3  32  1   
  7   3  33  1   
  8   4   7  1   
  9   5   8  1   
 10   6   9  1   
 11   6  10  1   
 12   6  34  1   
 13   7   8  ar  
 14   7  11  ar  
 15   8  12  ar  
 16   9  13  1   
 17   9  35  1   
 18   9  36  1   
 19  10  37  1   
 20  10  38  1   
 21  10  39  1   
 22  11  14  ar  
 23  11  40  1   
 24  12  15  ar  
 25  12  41  1   
 26  13  16  ar  
 27  13  17  1   
 28  14  15  ar  
 29  14  42  1   
 30  15  43  1   
 31  16  18  ar  
 32  16  19  ar  
 33  17  20  1   
 34  17  21  2   
 35  18  21  1   
 36  18  44  1   
 37  19  22  1   
 38  19  23  1   
 39  20  24  2   
 40  20  25  am  
 41  21  26  1   
 42  22  27  1   
 43  22  45  1   
 44  22  46  1   
 45  23  28  1   
 46  23  47  1   
 47  23  48  1   
 48  25  29  am  
 49  25  49  1   
 50  26  29  am  
 51  26  30  1   
 52  27  28  1   
 53  27  50  1   
 54  27  51  1   
 55  28  52  1   
 56  28  53  1   
 57  29  31  2   
 58  30  54  1   
 59  30  55  1   
 60  30  56  1   
@<TRIPOS>SUBSTRUCTURE
  1 ****   9 GROUP 4 **** **** 0

# MOE 2024.06 (io_trps.svl 2023.06)
