@<TRIPOS>MOLECULE
N-[3-(4-tert-Butyl-phenyl)-[1,2,4]oxadiazol-5-ylmethyl]-propionamide
42 43 1 0 0 
SMALL
USER_CHARGES


@<TRIPOS>ATOM
  1 O       -1.6580    -0.6070     1.9220 O.2   1 <1>  -0.5700 
  2 C       -2.3780    -0.5700     0.9580 C.2   1 <1>   0.5690 
  3 N       -3.7120    -0.6770     1.1360 N.am  1 <1>  -0.7300 
  4 C       -1.7900    -0.4020    -0.4400 C.3   1 <1>  -0.0990 
  5 C       -4.7960    -0.6860     0.1180 C.3   1 <1>   0.3200 
  6 C       -0.2540    -0.4480    -0.4980 C.3   1 <1>  -0.2400 
  7 C       -5.2730    -2.0980    -0.1840 C.2   1 <1>   0.2980 
  8 O       -4.4640    -2.9050    -0.8190 O.3   1 <1>  -0.0190 
  9 N       -6.4060    -2.5860     0.1160 N.2   1 <1>  -0.5650 
 10 N       -5.1410    -4.0030    -0.9330 N.2   1 <1>  -0.4100 
 11 C       -6.2880    -3.8240    -0.3780 C.2   1 <1>   0.4620 
 12 C       -7.3480    -4.8140    -0.2810 C.ar  1 <1>   0.0540 
 13 C       -7.1940    -6.0970    -0.8030 C.ar  1 <1>  -0.1500 
 14 C       -8.5660    -4.5340     0.3370 C.ar  1 <1>  -0.1500 
 15 C       -8.1980    -7.0420    -0.7130 C.ar  1 <1>  -0.1500 
 16 C       -9.5720    -5.4790     0.4280 C.ar  1 <1>  -0.1500 
 17 C       -9.4100    -6.7570    -0.0970 C.ar  1 <1>  -0.1430 
 18 C      -10.5030    -7.8470    -0.0210 C.3   1 <1>   0.1430 
 19 C      -10.8960    -8.2790    -1.4420 C.3   1 <1>  -0.2400 
 20 C      -11.7820    -7.3730     0.6900 C.3   1 <1>  -0.2400 
 21 C       -9.9650    -9.0600     0.7520 C.3   1 <1>  -0.2400 
 22 H       -4.0060    -0.8670     2.0970 H     1 <1>   0.3700 
 23 H       -2.1220     0.5400    -0.8340 H     1 <1>   0.0800 
 24 H       -2.1750    -1.1860    -1.0670 H     1 <1>   0.0800 
 25 H       -4.4590    -0.2270    -0.7930 H     1 <1>   0.0800 
 26 H       -5.6250    -0.1110     0.4910 H     1 <1>   0.0800 
 27 H        0.1640     0.3420     0.1020 H     1 <1>   0.0800 
 28 H        0.0880    -0.3310    -1.5110 H     1 <1>   0.0800 
 29 H        0.1040    -1.3890    -0.1170 H     1 <1>   0.0800 
 30 H       -6.2700    -6.3600    -1.2890 H     1 <1>   0.1500 
 31 H       -8.7310    -3.5570     0.7560 H     1 <1>   0.1500 
 32 H       -8.0200    -8.0150    -1.1350 H     1 <1>   0.1500 
 33 H      -10.4810    -5.1860     0.9180 H     1 <1>   0.1500 
 34 H      -11.2400    -7.4280    -2.0020 H     1 <1>   0.0800 
 35 H      -11.6820    -9.0120    -1.4130 H     1 <1>   0.0800 
 36 H      -10.0600    -8.7080    -1.9620 H     1 <1>   0.0800 
 37 H      -11.5650    -7.0830     1.7030 H     1 <1>   0.0800 
 38 H      -12.5120    -8.1610     0.7190 H     1 <1>   0.0800 
 39 H      -12.2150    -6.5370     0.1710 H     1 <1>   0.0800 
 40 H       -9.6540    -8.7590     1.7360 H     1 <1>   0.0800 
 41 H       -9.1200    -9.4960     0.2510 H     1 <1>   0.0800 
 42 H      -10.7230    -9.8170     0.8470 H     1 <1>   0.0800 
@<TRIPOS>BOND
  1   1   2  2   
  2   2   3  am  
  3   2   4  1   
  4   3   5  1   
  5   3  22  1   
  6   4   6  1   
  7   4  23  1   
  8   4  24  1   
  9   5   7  1   
 10   5  25  1   
 11   5  26  1   
 12   6  27  1   
 13   6  28  1   
 14   6  29  1   
 15   7   8  1   
 16   7   9  2   
 17   8  10  1   
 18   9  11  1   
 19  10  11  2   
 20  11  12  1   
 21  12  13  ar  
 22  12  14  ar  
 23  13  15  ar  
 24  13  30  1   
 25  14  16  ar  
 26  14  31  1   
 27  15  17  ar  
 28  15  32  1   
 29  16  17  ar  
 30  16  33  1   
 31  17  18  1   
 32  18  19  1   
 33  18  20  1   
 34  18  21  1   
 35  19  34  1   
 36  19  35  1   
 37  19  36  1   
 38  20  37  1   
 39  20  38  1   
 40  20  39  1   
 41  21  40  1   
 42  21  41  1   
 43  21  42  1   
@<TRIPOS>SUBSTRUCTURE
  1 ****  11 GROUP 4 **** **** 0

# MOE 2024.06 (io_trps.svl 2023.06)
