@<TRIPOS>MOLECULE
7-(3-Allyloxy-2-hydroxy-propyl)-8-azepan-1-yl-1,3-dimethyl-3,7-dihydro-purine-2,
58 60 1 0 0 
SMALL
USER_CHARGES


@<TRIPOS>ATOM
  1 O        1.8750     3.2870     1.7390 O.2   1 <1>  -0.5740 
  2 C        2.8360     3.0530     1.0340 C.2   1 <1>   0.6870 
  3 N        3.1500     3.9030    -0.0200 N.am  1 <1>  -0.4250 
  4 N        3.6180     1.9330     1.2790 N.am  1 <1>  -0.4410 
  5 C        4.2310     3.6460    -0.8520 C.2   1 <1>   0.7000 
  6 C        2.2790     5.0970    -0.2650 C.3   1 <1>   0.0530 
  7 C        4.7150     1.7180     0.4670 C.2   1 <1>   0.4210 
  8 C        3.3080     1.0120     2.4130 C.3   1 <1>   0.0530 
  9 O        4.4600     4.3700    -1.8090 O.2   1 <1>  -0.5740 
 10 C        5.0640     2.5150    -0.5610 C.2   1 <1>   0.2710 
 11 N        5.6070     0.7030     0.5440 N.pl3 1 <1>  -0.7030 
 12 N        6.2430     1.9650    -1.1120 N.pl3 1 <1>  -0.7670 
 13 C        6.5310     0.8460    -0.4110 C.cat 1 <1>   1.0690 
 14 C        7.0400     2.6990    -2.1500 C.3   1 <1>   0.3490 
 15 N        7.5070    -0.0920    -0.5700 N.pl3 1 <1>  -0.5960 
 16 C        8.0600     3.6980    -1.5410 C.3   1 <1>   0.1940 
 17 C        8.7220     0.0580    -1.4330 C.3   1 <1>   0.1610 
 18 C        7.4040    -1.4240     0.1060 C.3   1 <1>   0.1610 
 19 O        8.6440     3.1720    -0.3930 O.3   1 <1>  -0.6830 
 20 C        7.4570     5.0580    -1.1610 C.3   1 <1>   0.1140 
 21 C       10.0000    -0.5770    -0.8640 C.3   1 <1>  -0.1660 
 22 C        8.0240    -1.3660     1.5080 C.3   1 <1>  -0.1660 
 23 O        8.3670     5.7510    -0.3570 O.3   1 <1>  -0.5640 
 24 C       10.2230    -0.3250     0.6360 C.3   1 <1>  -0.1660 
 25 C        9.5590    -1.3930     1.5160 C.3   1 <1>  -0.1660 
 26 C        7.9890     7.0440     0.0100 C.3   1 <1>   0.2530 
 27 C        6.7680     7.0000     0.9170 C.2   1 <1>  -0.2940 
 28 C        6.7850     7.1960     2.2380 C.2   1 <1>  -0.3050 
 29 H        1.9850     5.5400     0.6710 H     1 <1>   0.0730 
 30 H        1.3950     4.7940    -0.7980 H     1 <1>   0.0730 
 31 H        2.7970     5.8450    -0.8400 H     1 <1>   0.0730 
 32 H        2.2940     1.1470     2.7500 H     1 <1>   0.0730 
 33 H        3.9710     1.2140     3.2360 H     1 <1>   0.0730 
 34 H        3.4210    -0.0120     2.1030 H     1 <1>   0.0730 
 35 H        5.6460    -0.0270     1.2450 H     1 <1>   0.4450 
 36 H        6.3800     3.2310    -2.8120 H     1 <1>   0.0730 
 37 H        7.5590     1.9970    -2.7740 H     1 <1>   0.0730 
 38 H        8.8470     3.8740    -2.2540 H     1 <1>   0.0730 
 39 H        8.9510     1.0920    -1.5610 H     1 <1>   0.0730 
 40 H        8.5210    -0.3620    -2.4040 H     1 <1>   0.0730 
 41 H        7.8890    -2.1850    -0.4840 H     1 <1>   0.0730 
 42 H        6.3710    -1.7150     0.1830 H     1 <1>   0.0730 
 43 H        9.0090     3.9440     0.1050 H     1 <1>   0.3950 
 44 H        6.5620     4.9120    -0.5910 H     1 <1>   0.0730 
 45 H        7.2380     5.6410    -2.0390 H     1 <1>   0.0730 
 46 H       10.8290    -0.1500    -1.4000 H     1 <1>   0.0730 
 47 H       10.0220    -1.6320    -1.0750 H     1 <1>   0.0730 
 48 H        7.6840    -2.2230     2.0630 H     1 <1>   0.0730 
 49 H        7.6840    -0.4910     2.0330 H     1 <1>   0.0730 
 50 H        9.8850     0.6610     0.9120 H     1 <1>   0.0730 
 51 H       11.2820    -0.3620     0.8270 H     1 <1>   0.0730 
 52 H        9.9000    -2.3660     1.2050 H     1 <1>   0.0730 
 53 H        9.8940    -1.2550     2.5300 H     1 <1>   0.0730 
 54 H        7.8000     7.6250    -0.8770 H     1 <1>   0.0730 
 55 H        8.8210     7.4780     0.5360 H     1 <1>   0.0730 
 56 H        5.8580     6.7990     0.3800 H     1 <1>   0.1440 
 57 H        5.9090     7.1690     2.8640 H     1 <1>   0.1440 
 58 H        7.6750     7.4010     2.8080 H     1 <1>   0.1440 
@<TRIPOS>BOND
  1   1   2  2   
  2   2   3  am  
  3   2   4  am  
  4   3   5  am  
  5   3   6  1   
  6   4   7  1   
  7   4   8  1   
  8   5   9  2   
  9   5  10  1   
 10   6  29  1   
 11   6  30  1   
 12   6  31  1   
 13   7  10  2   
 14   7  11  1   
 15   8  32  1   
 16   8  33  1   
 17   8  34  1   
 18  10  12  1   
 19  11  13  ar  
 20  11  35  1   
 21  12  13  ar  
 22  12  14  1   
 23  13  15  ar  
 24  14  16  1   
 25  14  36  1   
 26  14  37  1   
 27  15  17  1   
 28  15  18  1   
 29  16  19  1   
 30  16  20  1   
 31  16  38  1   
 32  17  21  1   
 33  17  39  1   
 34  17  40  1   
 35  18  22  1   
 36  18  41  1   
 37  18  42  1   
 38  19  43  1   
 39  20  23  1   
 40  20  44  1   
 41  20  45  1   
 42  21  24  1   
 43  21  46  1   
 44  21  47  1   
 45  22  25  1   
 46  22  48  1   
 47  22  49  1   
 48  23  26  1   
 49  24  25  1   
 50  24  50  1   
 51  24  51  1   
 52  25  52  1   
 53  25  53  1   
 54  26  27  1   
 55  26  54  1   
 56  26  55  1   
 57  27  28  2   
 58  27  56  1   
 59  28  57  1   
 60  28  58  1   
@<TRIPOS>SUBSTRUCTURE
  1 ****  12 GROUP 4 **** **** 0

# MOE 2024.06 (io_trps.svl 2023.06)
