@<TRIPOS>MOLECULE
3,6-Dihydroxy-4-(3-methoxy-phenyl)-6-methyl-4,5,6,7-tetrahydro-1H-indazole-5-car
44 46 1 0 0 
SMALL
USER_CHARGES


@<TRIPOS>ATOM
  1 O        0.1100     3.2550    -1.4050 O.2   1 <1>  -0.5700 
  2 C        0.3280     2.1070    -1.1190 C.2   1 <1>   0.6590 
  3 O       -0.0200     1.1140    -1.9310 O.3   1 <1>  -0.4300 
  4 C        1.0250     1.6690     0.1560 C.3   1 <1>  -0.0190 
  5 C       -0.6680     1.3560    -3.1640 C.3   1 <1>   0.0400 
  6 C        0.8110     2.6590     1.3370 C.3   1 <1>   0.2800 
  7 C        2.5100     1.3820    -0.1880 C.3   1 <1>   0.2440 
  8 O        1.3260     2.0520     2.4650 O.3   1 <1>  -0.6800 
  9 C        1.5640     4.0030     1.1710 C.3   1 <1>   0.0200 
 10 C       -0.6690     2.8910     1.6650 C.3   1 <1>  -0.2400 
 11 C        3.0520     0.1680     0.5730 C.ar  1 <1>  -0.1440 
 12 C        3.3670     2.6140     0.0400 C.2   1 <1>  -0.1810 
 13 C        2.9580     3.7540     0.6240 C.2   1 <1>  -0.3320 
 14 C        2.6860    -1.0990     0.1380 C.ar  1 <1>  -0.1500 
 15 C        3.9000     0.2830     1.6710 C.ar  1 <1>  -0.1500 
 16 C        4.6970     2.8520    -0.2760 C.2   1 <1>   0.3510 
 17 N        4.0100     4.6040     0.6120 N.pl3 1 <1>   0.3000 
 18 C        3.1530    -2.2380     0.7880 C.ar  1 <1>   0.0820 
 19 C        4.3670    -0.8460     2.3180 C.ar  1 <1>  -0.1500 
 20 O        5.5200     1.9450    -0.8280 O.3   1 <1>  -0.5120 
 21 N        5.1020     4.0310     0.0560 N.2   1 <1>  -0.7070 
 22 O        2.8330    -3.5030     0.4180 O.3   1 <1>  -0.3630 
 23 C        3.9950    -2.1020     1.8770 C.ar  1 <1>  -0.1500 
 24 C        1.9260    -3.7590    -0.6310 C.3   1 <1>   0.0400 
 25 H        0.5550     0.7430     0.4330 H     1 <1>   0.0800 
 26 H       -0.8510     0.4120    -3.6460 H     1 <1>   0.0800 
 27 H       -0.0310     1.9690    -3.7790 H     1 <1>   0.0800 
 28 H       -1.5990     1.8620    -2.9750 H     1 <1>   0.0800 
 29 H        2.5870     1.1450    -1.2360 H     1 <1>   0.0800 
 30 H        2.2780     1.8780     2.3320 H     1 <1>   0.4000 
 31 H        1.6110     4.5090     2.1190 H     1 <1>   0.0800 
 32 H        1.0350     4.6430     0.4880 H     1 <1>   0.0800 
 33 H       -1.1620     3.4190     0.8700 H     1 <1>   0.0800 
 34 H       -0.7620     3.4790     2.5600 H     1 <1>   0.0800 
 35 H       -1.1720     1.9520     1.8140 H     1 <1>   0.0800 
 36 H        2.0330    -1.1910    -0.7100 H     1 <1>   0.1500 
 37 H        4.2150     1.2450     2.0410 H     1 <1>   0.1500 
 38 H        4.0240     5.5670     0.9700 H     1 <1>   0.2700 
 39 H        5.0220    -0.7490     3.1670 H     1 <1>   0.1500 
 40 H        5.2300     1.0510    -0.5850 H     1 <1>   0.4500 
 41 H        4.3530    -2.9840     2.3760 H     1 <1>   0.1500 
 42 H        1.8060    -4.8240    -0.7140 H     1 <1>   0.0800 
 43 H        2.3290    -3.3640    -1.5460 H     1 <1>   0.0800 
 44 H        0.9810    -3.3030    -0.3950 H     1 <1>   0.0800 
@<TRIPOS>BOND
  1   1   2  2   
  2   2   3  1   
  3   2   4  1   
  4   3   5  1   
  5   4   6  1   
  6   4   7  1   
  7   4  25  1   
  8   5  26  1   
  9   5  27  1   
 10   5  28  1   
 11   6   8  1   
 12   6   9  1   
 13   6  10  1   
 14   7  11  1   
 15   7  12  1   
 16   7  29  1   
 17   8  30  1   
 18   9  13  1   
 19   9  31  1   
 20   9  32  1   
 21  10  33  1   
 22  10  34  1   
 23  10  35  1   
 24  11  14  ar  
 25  11  15  ar  
 26  12  13  2   
 27  12  16  1   
 28  13  17  1   
 29  14  18  ar  
 30  14  36  1   
 31  15  19  ar  
 32  15  37  1   
 33  16  20  1   
 34  16  21  2   
 35  17  21  1   
 36  17  38  1   
 37  18  22  1   
 38  18  23  ar  
 39  19  23  ar  
 40  19  39  1   
 41  20  40  1   
 42  22  24  1   
 43  23  41  1   
 44  24  42  1   
 45  24  43  1   
 46  24  44  1   
@<TRIPOS>SUBSTRUCTURE
  1 ****   7 GROUP 4 **** **** 0

# MOE 2024.06 (io_trps.svl 2023.06)
