@<TRIPOS>MOLECULE
(4-tert-Butylamino-6-piperidin-1-yl-[1,3,5]triazin-2-yloxy)-acetonitrile
43 44 1 0 0 
SMALL
USER_CHARGES


@<TRIPOS>ATOM
  1 O        0.1900    -0.3280    -0.1710 O.3   1 <1>  -0.3630 
  2 C       -0.0160    -1.6480    -0.0500 C.ar  1 <1>   0.7020 
  3 C        1.4940     0.2280    -0.1870 C.3   1 <1>   0.3200 
  4 N        1.0230    -2.4250     0.0830 N.ar  1 <1>  -0.6200 
  5 N       -1.2610    -2.0100    -0.0860 N.ar  1 <1>  -0.6200 
  6 C        2.0910     0.2690     1.1840 C.1   1 <1>   0.3570 
  7 C        0.7220    -3.6950     0.2060 C.ar  1 <1>   0.7200 
  8 C       -1.4280    -3.3010     0.0310 C.ar  1 <1>   0.7200 
  9 N        2.5770     0.3220     2.2120 N.1   1 <1>  -0.5570 
 10 N       -0.4890    -4.1900     0.1740 N.ar  1 <1>  -0.6200 
 11 N        1.7670    -4.5680     0.3830 N.pl3 1 <1>  -0.8380 
 12 N       -2.6750    -3.8240    -0.0010 N.pl3 1 <1>  -0.8690 
 13 C        3.0190    -4.1800     1.0920 C.3   1 <1>   0.2090 
 14 C        1.6640    -6.0150     0.0510 C.3   1 <1>   0.2090 
 15 C       -3.9650    -3.2070     0.3020 C.3   1 <1>   0.3690 
 16 C        4.2300    -4.5770     0.2420 C.3   1 <1>  -0.1600 
 17 C        2.8740    -6.4330    -0.7930 C.3   1 <1>  -0.1600 
 18 C       -3.9120    -2.4990     1.6560 C.3   1 <1>  -0.2400 
 19 C       -4.3610    -2.2520    -0.8230 C.3   1 <1>  -0.2400 
 20 C       -4.9700    -4.3540     0.3700 C.3   1 <1>  -0.2400 
 21 C        4.2030    -6.0700    -0.1150 C.3   1 <1>  -0.1600 
 22 H        1.4080     1.2300    -0.5630 H     1 <1>   0.0800 
 23 H        2.1140    -0.3420    -0.8560 H     1 <1>   0.0800 
 24 H       -2.6630    -4.8280     0.1450 H     1 <1>   0.4000 
 25 H        3.0560    -4.6930     2.0380 H     1 <1>   0.0800 
 26 H        3.0470    -3.1220     1.2920 H     1 <1>   0.0800 
 27 H        0.7630    -6.2190    -0.5020 H     1 <1>   0.0800 
 28 H        1.6350    -6.5840     0.9640 H     1 <1>   0.0800 
 29 H        5.1310    -4.3490     0.7820 H     1 <1>   0.0800 
 30 H        4.2250    -3.9870    -0.6570 H     1 <1>   0.0800 
 31 H        2.8090    -5.9400    -1.7470 H     1 <1>   0.0800 
 32 H        2.8330    -7.4930    -0.9690 H     1 <1>   0.0800 
 33 H       -3.2530    -1.6510     1.6180 H     1 <1>   0.0800 
 34 H       -3.5700    -3.1740     2.4190 H     1 <1>   0.0800 
 35 H       -4.8890    -2.1440     1.9250 H     1 <1>   0.0800 
 36 H       -4.3340    -2.7600    -1.7700 H     1 <1>   0.0800 
 37 H       -3.6960    -1.4100    -0.8610 H     1 <1>   0.0800 
 38 H       -5.3560    -1.8800    -0.6610 H     1 <1>   0.0800 
 39 H       -5.0060    -4.8780    -0.5690 H     1 <1>   0.0800 
 40 H       -5.9530    -3.9730     0.5790 H     1 <1>   0.0800 
 41 H       -4.7050    -5.0440     1.1510 H     1 <1>   0.0800 
 42 H        4.3180    -6.6540     0.7820 H     1 <1>   0.0800 
 43 H        5.0230    -6.3020    -0.7730 H     1 <1>   0.0800 
@<TRIPOS>BOND
  1   1   2  1   
  2   1   3  1   
  3   2   4  ar  
  4   2   5  ar  
  5   3   6  1   
  6   3  22  1   
  7   3  23  1   
  8   4   7  ar  
  9   5   8  ar  
 10   6   9  3   
 11   7  10  ar  
 12   7  11  1   
 13   8  10  ar  
 14   8  12  1   
 15  11  13  1   
 16  11  14  1   
 17  12  15  1   
 18  12  24  1   
 19  13  16  1   
 20  13  25  1   
 21  13  26  1   
 22  14  17  1   
 23  14  27  1   
 24  14  28  1   
 25  15  18  1   
 26  15  19  1   
 27  15  20  1   
 28  16  21  1   
 29  16  29  1   
 30  16  30  1   
 31  17  21  1   
 32  17  31  1   
 33  17  32  1   
 34  18  33  1   
 35  18  34  1   
 36  18  35  1   
 37  19  36  1   
 38  19  37  1   
 39  19  38  1   
 40  20  39  1   
 41  20  40  1   
 42  20  41  1   
 43  21  42  1   
 44  21  43  1   
@<TRIPOS>SUBSTRUCTURE
  1 ****   7 GROUP 4 **** **** 0

# MOE 2024.06 (io_trps.svl 2023.06)
