@<TRIPOS>MOLECULE
7-(2-Hydroxy-propyl)-8-(3-isopropoxy-propylamino)-3-methyl-3,7-dihydro-purine-2,
50 51 1 0 0 
SMALL
USER_CHARGES


@<TRIPOS>ATOM
  1 O        1.9060     0.5950     2.5720 O.2   1 <1>  -0.5750 
  2 C        2.6640     1.0800     1.7650 C.2   1 <1>   0.6860 
  3 N        3.7000     0.3560     1.1920 N.am  1 <1>  -0.4420 
  4 N        2.4880     2.3870     1.4130 N.am  1 <1>  -0.4950 
  5 C        4.5150     1.0120     0.2820 C.2   1 <1>   0.4200 
  6 C        3.9430    -1.0700     1.5590 C.3   1 <1>   0.0520 
  7 C        3.2850     3.0480     0.5230 C.2   1 <1>   0.6990 
  8 N        5.5910     0.5100    -0.3810 N.pl3 1 <1>  -0.7040 
  9 C        4.3560     2.3070    -0.0770 C.2   1 <1>   0.2700 
 10 O        3.0590     4.2180     0.2870 O.2   1 <1>  -0.5750 
 11 C        6.1070     1.4820    -1.1260 C.cat 1 <1>   1.0690 
 12 N        5.3790     2.5910    -1.0020 N.pl3 1 <1>  -0.7670 
 13 N        7.2030     1.3630    -1.8600 N.pl3 1 <1>  -0.7180 
 14 C        5.5360     3.9000    -1.7200 C.3   1 <1>   0.3480 
 15 C        8.0660     0.1780    -2.0470 C.3   1 <1>   0.1600 
 16 C        6.7770     4.7130    -1.2770 C.3   1 <1>   0.1930 
 17 C        8.9200    -0.0240    -0.7980 C.3   1 <1>  -0.1670 
 18 O        7.9400     4.0300    -1.6060 O.3   1 <1>  -0.6840 
 19 C        6.8260     4.9880     0.2270 C.3   1 <1>  -0.2470 
 20 C        9.8010    -1.2630    -0.9230 C.3   1 <1>   0.1120 
 21 O       10.3060    -1.5170     0.3420 O.3   1 <1>  -0.5650 
 22 C       11.2200    -2.5610     0.4230 C.3   1 <1>   0.1930 
 23 C       11.1350    -3.1110     1.8420 C.3   1 <1>  -0.2470 
 24 C       12.6170    -2.0170     0.1250 C.3   1 <1>  -0.2470 
 25 H        1.7220     2.8910     1.8540 H     1 <1>   0.3640 
 26 H        3.1580    -1.4420     2.1950 H     1 <1>   0.0720 
 27 H        4.8770    -1.1560     2.0870 H     1 <1>   0.0720 
 28 H        3.9740    -1.6780     0.6720 H     1 <1>   0.0720 
 29 H        6.0020    -0.4130    -0.2880 H     1 <1>   0.4440 
 30 H        7.6400     2.2660    -2.1070 H     1 <1>   0.4440 
 31 H        4.6610     4.5050    -1.5600 H     1 <1>   0.0720 
 32 H        5.6000     3.7210    -2.7800 H     1 <1>   0.0720 
 33 H        8.6990     0.3290    -2.9060 H     1 <1>   0.0720 
 34 H        7.4560    -0.6930    -2.2260 H     1 <1>   0.0720 
 35 H        6.7890     5.6470    -1.8140 H     1 <1>   0.0720 
 36 H        8.2880    -0.1490     0.0630 H     1 <1>   0.0720 
 37 H        9.5550     0.8320    -0.6460 H     1 <1>   0.0720 
 38 H        8.7170     4.5710    -1.3430 H     1 <1>   0.3940 
 39 H        6.9140     4.0750     0.7880 H     1 <1>   0.0720 
 40 H        5.9270     5.4920     0.5350 H     1 <1>   0.0720 
 41 H        7.6580     5.6290     0.4630 H     1 <1>   0.0720 
 42 H       10.6140    -1.0910    -1.6080 H     1 <1>   0.0720 
 43 H        9.2300    -2.1220    -1.2330 H     1 <1>   0.0720 
 44 H       10.9480    -3.3320    -0.2800 H     1 <1>   0.0720 
 45 H       11.3760    -2.3430     2.5550 H     1 <1>   0.0720 
 46 H       11.8280    -3.9240     1.9640 H     1 <1>   0.0720 
 47 H       10.1440    -3.4780     2.0340 H     1 <1>   0.0720 
 48 H       12.8520    -1.2100     0.7960 H     1 <1>   0.0720 
 49 H       12.6840    -1.6680    -0.8890 H     1 <1>   0.0720 
 50 H       13.3460    -2.7950     0.2580 H     1 <1>   0.0720 
@<TRIPOS>BOND
  1   1   2  2   
  2   2   3  am  
  3   2   4  am  
  4   3   5  1   
  5   3   6  1   
  6   4   7  am  
  7   4  25  1   
  8   5   8  1   
  9   5   9  2   
 10   6  26  1   
 11   6  27  1   
 12   6  28  1   
 13   7   9  1   
 14   7  10  2   
 15   8  11  ar  
 16   8  29  1   
 17   9  12  1   
 18  11  12  ar  
 19  11  13  ar  
 20  12  14  1   
 21  13  15  1   
 22  13  30  1   
 23  14  16  1   
 24  14  31  1   
 25  14  32  1   
 26  15  17  1   
 27  15  33  1   
 28  15  34  1   
 29  16  18  1   
 30  16  19  1   
 31  16  35  1   
 32  17  20  1   
 33  17  36  1   
 34  17  37  1   
 35  18  38  1   
 36  19  39  1   
 37  19  40  1   
 38  19  41  1   
 39  20  21  1   
 40  20  42  1   
 41  20  43  1   
 42  21  22  1   
 43  22  23  1   
 44  22  24  1   
 45  22  44  1   
 46  23  45  1   
 47  23  46  1   
 48  23  47  1   
 49  24  48  1   
 50  24  49  1   
 51  24  50  1   
@<TRIPOS>SUBSTRUCTURE
  1 ****   8 GROUP 4 **** **** 0

# MOE 2024.06 (io_trps.svl 2023.06)
