@<TRIPOS>MOLECULE
3-Trifluoromethyl-6-(3,4,5-trimethoxy-phenyl)-[1,2,4]triazolo[3,4-b][1,3,4]thiad
35 37 1 0 0 
SMALL
USER_CHARGES


@<TRIPOS>ATOM
  1 S       -0.5270    -0.1780     0.6920 S.3   1 <1>  -0.1970 
  2 C        0.4050     1.2970     0.6610 C.2   1 <1>   0.2420 
  3 C       -1.9960     0.7650     0.2980 C.2   1 <1>   0.5050 
  4 N        1.6340     1.6220     0.8400 N.2   1 <1>  -0.3380 
  5 N       -0.4060     2.2990     0.3790 N.pl3 1 <1>   0.5050 
  6 N       -1.7550     2.0240     0.1710 N.2   1 <1>  -0.6520 
  7 C       -3.2620     0.0720     0.1620 C.ar  1 <1>   0.0860 
  8 N        1.6540     2.9560     0.6640 N.2   1 <1>  -0.3380 
  9 C        0.4340     3.3350     0.3910 C.2   1 <1>   0.0060 
 10 C       -3.4010    -1.3080     0.3260 C.ar  1 <1>  -0.1500 
 11 C       -4.4170     0.7910    -0.1500 C.ar  1 <1>  -0.1500 
 12 C       -0.1040     4.7210     0.1060 C.3   1 <1>   1.2000 
 13 C       -4.6190    -1.9470     0.1900 C.ar  1 <1>   0.0830 
 14 C       -5.6570     0.1780    -0.2850 C.ar  1 <1>   0.0830 
 15 F       -1.0390     5.0860     0.9760 F     1 <1>  -0.3400 
 16 F        0.8270     5.6670     0.1480 F     1 <1>  -0.3400 
 17 F       -0.6610     4.8060    -1.0960 F     1 <1>  -0.3400 
 18 O       -4.5960    -3.2970     0.3660 O.3   1 <1>  -0.3630 
 19 C       -5.7670    -1.2020    -0.1000 C.ar  1 <1>   0.0830 
 20 O       -6.7870     0.8790    -0.5940 O.3   1 <1>  -0.3630 
 21 C       -5.3570    -4.1290    -0.4840 C.3   1 <1>   0.0400 
 22 O       -6.9830    -1.8010    -0.2010 O.3   1 <1>  -0.3630 
 23 C       -6.7420     2.2310    -0.9950 C.3   1 <1>   0.0400 
 24 C       -7.8280    -1.6680     0.9190 C.3   1 <1>   0.0400 
 25 H       -2.5530    -1.9240     0.5640 H     1 <1>   0.1500 
 26 H       -4.3250     1.8530    -0.2820 H     1 <1>   0.1500 
 27 H       -4.9110    -5.1070    -0.4830 H     1 <1>   0.0800 
 28 H       -5.3510    -3.7210    -1.4790 H     1 <1>   0.0800 
 29 H       -6.3610    -4.1900    -0.1060 H     1 <1>   0.0800 
 30 H       -7.7380     2.5300    -1.2670 H     1 <1>   0.0800 
 31 H       -6.0900     2.3220    -1.8460 H     1 <1>   0.0800 
 32 H       -6.3940     2.8300    -0.1730 H     1 <1>   0.0800 
 33 H       -8.7350    -2.2100     0.7210 H     1 <1>   0.0800 
 34 H       -8.0490    -0.6270     1.0730 H     1 <1>   0.0800 
 35 H       -7.3300    -2.0790     1.7790 H     1 <1>   0.0800 
@<TRIPOS>BOND
  1   1   2  1   
  2   1   3  1   
  3   2   4  2   
  4   2   5  1   
  5   3   6  2   
  6   3   7  1   
  7   4   8  1   
  8   5   6  1   
  9   5   9  1   
 10   7  10  ar  
 11   7  11  ar  
 12   8   9  2   
 13   9  12  1   
 14  10  13  ar  
 15  10  25  1   
 16  11  14  ar  
 17  11  26  1   
 18  12  15  1   
 19  12  16  1   
 20  12  17  1   
 21  13  18  1   
 22  13  19  ar  
 23  14  19  ar  
 24  14  20  1   
 25  18  21  1   
 26  19  22  1   
 27  20  23  1   
 28  21  27  1   
 29  21  28  1   
 30  21  29  1   
 31  22  24  1   
 32  23  30  1   
 33  23  31  1   
 34  23  32  1   
 35  24  33  1   
 36  24  34  1   
 37  24  35  1   
@<TRIPOS>SUBSTRUCTURE
  1 ****   3 GROUP 4 **** **** 0

# MOE 2024.06 (io_trps.svl 2023.06)
