@<TRIPOS>MOLECULE
[4-(3,4-Dimethoxy-benzoyl)-piperazin-1-yl]-piperidin-1-yl-methanone
53 55 1 0 0 
SMALL
USER_CHARGES


@<TRIPOS>ATOM
  1 O       -1.2160     0.8750    -0.9610 O.2   1 <1>  -0.5700 
  2 C       -1.4690     1.9460    -0.4360 C.2   1 <1>   0.6900 
  3 N       -2.7680     2.3820    -0.3740 N.am  1 <1>  -0.6600 
  4 N       -0.4590     2.6970     0.1110 N.am  1 <1>  -0.6600 
  5 C       -3.7810     1.8260    -1.3250 C.3   1 <1>   0.1400 
  6 C       -3.3040     2.8330     0.9500 C.3   1 <1>   0.1400 
  7 C        0.8340     2.0700     0.4960 C.3   1 <1>   0.1400 
  8 C       -0.4290     4.1800     0.0000 C.3   1 <1>   0.1400 
  9 C       -4.7870     0.9300    -0.5880 C.3   1 <1>   0.1400 
 10 C       -4.8390     2.9190     0.9950 C.3   1 <1>   0.1400 
 11 C        1.9330     2.4880    -0.4860 C.3   1 <1>  -0.1600 
 12 C        0.6720     4.6110    -0.9760 C.3   1 <1>  -0.1600 
 13 N       -5.5020     1.6700     0.5030 N.am  1 <1>  -0.6600 
 14 C        2.0350     4.0150    -0.6020 C.3   1 <1>  -0.1600 
 15 C       -6.7860     1.3610     0.9020 C.2   1 <1>   0.5440 
 16 O       -7.4060     2.1860     1.5490 O.2   1 <1>  -0.5700 
 17 C       -7.4250     0.1050     0.5590 C.ar  1 <1>   0.0860 
 18 C       -6.7940    -1.1230     0.7430 C.ar  1 <1>  -0.1500 
 19 C       -8.7160     0.0840     0.0350 C.ar  1 <1>  -0.1500 
 20 C       -7.3970    -2.3210     0.4050 C.ar  1 <1>   0.0820 
 21 C       -9.3380    -1.0990    -0.3150 C.ar  1 <1>  -0.1500 
 22 O       -6.6450    -3.4300     0.6460 O.3   1 <1>  -0.3630 
 23 C       -8.6880    -2.3200    -0.1480 C.ar  1 <1>   0.0820 
 24 C       -7.2460    -4.6290     1.0850 C.3   1 <1>   0.0400 
 25 O       -9.2700    -3.4930    -0.5220 O.3   1 <1>  -0.3630 
 26 C      -10.5420    -3.5500    -1.1310 C.3   1 <1>   0.0400 
 27 H       -3.2960     1.2550    -2.0980 H     1 <1>   0.0800 
 28 H       -4.3030     2.6360    -1.8000 H     1 <1>   0.0800 
 29 H       -2.8960     3.7970     1.1910 H     1 <1>   0.0800 
 30 H       -2.9760     2.1420     1.7070 H     1 <1>   0.0800 
 31 H        0.7400     0.9970     0.5050 H     1 <1>   0.0800 
 32 H        1.0920     2.3890     1.4910 H     1 <1>   0.0800 
 33 H       -0.2420     4.6000     0.9740 H     1 <1>   0.0800 
 34 H       -1.3750     4.5500    -0.3540 H     1 <1>   0.0800 
 35 H       -4.2550     0.0960    -0.1650 H     1 <1>   0.0800 
 36 H       -5.5000     0.5490    -1.2980 H     1 <1>   0.0800 
 37 H       -5.1660     3.7460     0.3900 H     1 <1>   0.0800 
 38 H       -5.1470     3.1150     2.0080 H     1 <1>   0.0800 
 39 H        1.7100     2.0620    -1.4490 H     1 <1>   0.0800 
 40 H        2.8740     2.0830    -0.1590 H     1 <1>   0.0800 
 41 H        0.7370     5.6840    -0.9880 H     1 <1>   0.0800 
 42 H        0.3980     4.2890    -1.9660 H     1 <1>   0.0800 
 43 H        2.7640     4.2740    -1.3500 H     1 <1>   0.0800 
 44 H        2.3600     4.4240     0.3400 H     1 <1>   0.0800 
 45 H       -5.8080    -1.1470     1.1700 H     1 <1>   0.1500 
 46 H       -9.2320     1.0200    -0.0940 H     1 <1>   0.1500 
 47 H      -10.3310    -1.0450    -0.7180 H     1 <1>   0.1500 
 48 H       -6.4950    -5.2200     1.5770 H     1 <1>   0.0800 
 49 H       -7.6230    -5.1610     0.2310 H     1 <1>   0.0800 
 50 H       -8.0400    -4.3950     1.7710 H     1 <1>   0.0800 
 51 H      -10.7620    -4.5810    -1.3460 H     1 <1>   0.0800 
 52 H      -10.5180    -2.9850    -2.0460 H     1 <1>   0.0800 
 53 H      -11.2740    -3.1550    -0.4500 H     1 <1>   0.0800 
@<TRIPOS>BOND
  1   1   2  2   
  2   2   3  am  
  3   2   4  am  
  4   3   5  1   
  5   3   6  1   
  6   4   7  1   
  7   4   8  1   
  8   5   9  1   
  9   5  27  1   
 10   5  28  1   
 11   6  10  1   
 12   6  29  1   
 13   6  30  1   
 14   7  11  1   
 15   7  31  1   
 16   7  32  1   
 17   8  12  1   
 18   8  33  1   
 19   8  34  1   
 20   9  13  1   
 21   9  35  1   
 22   9  36  1   
 23  10  13  1   
 24  10  37  1   
 25  10  38  1   
 26  11  14  1   
 27  11  39  1   
 28  11  40  1   
 29  12  14  1   
 30  12  41  1   
 31  12  42  1   
 32  13  15  am  
 33  14  43  1   
 34  14  44  1   
 35  15  16  2   
 36  15  17  1   
 37  17  18  ar  
 38  17  19  ar  
 39  18  20  ar  
 40  18  45  1   
 41  19  21  ar  
 42  19  46  1   
 43  20  22  1   
 44  20  23  ar  
 45  21  23  ar  
 46  21  47  1   
 47  22  24  1   
 48  23  25  1   
 49  24  48  1   
 50  24  49  1   
 51  24  50  1   
 52  25  26  1   
 53  26  51  1   
 54  26  52  1   
 55  26  53  1   
@<TRIPOS>SUBSTRUCTURE
  1 ****   9 GROUP 4 **** **** 0

# MOE 2024.06 (io_trps.svl 2023.06)
