@<TRIPOS>MOLECULE
2-(8,8-Dimethyl-1-oxo-8,9-dihydro-1H,6H-7-oxa-11-thia-2,4,10-triaza-benzo[b]fluo
53 57 1 0 0 
SMALL
USER_CHARGES


@<TRIPOS>ATOM
  1 S        0.9100    -1.0670     0.5460 S.3   1 <1>  -0.0800 
  2 C       -0.5770    -0.1100     0.5630 C.ar  1 <1>   0.2970 
  3 C        1.7520     0.1310     1.5380 C.2   1 <1>  -0.0450 
  4 N       -1.6710    -0.5090    -0.0610 N.ar  1 <1>  -0.5670 
  5 C       -0.3910     1.0520     1.3010 C.ar  1 <1>   0.0000 
  6 C        3.0890     0.0810     1.9830 C.2   1 <1>   0.7150 
  7 C        0.9350     1.1680     1.8410 C.2   1 <1>   0.1250 
  8 C       -2.6830     0.3350     0.0610 C.ar  1 <1>   0.1660 
  9 C       -1.4700     1.9130     1.4060 C.ar  1 <1>  -0.1500 
 10 O        3.8810    -0.8130     1.7070 O.2   1 <1>  -0.5700 
 11 N        3.4900     1.1440     2.7610 N.am  1 <1>  -0.4200 
 12 N        1.3880     2.2210     2.5990 N.2   1 <1>  -0.5750 
 13 C       -2.6370     1.5390     0.7690 C.ar  1 <1>  -0.1440 
 14 C       -3.9740    -0.0730    -0.6190 C.3   1 <1>  -0.0170 
 15 C        2.6080     2.1740     3.0110 C.2   1 <1>   0.4500 
 16 C        4.8830     1.2030     3.2940 C.3   1 <1>   0.2010 
 17 C       -3.8520     2.4550     0.8340 C.3   1 <1>   0.2640 
 18 C       -4.9200     1.1170    -0.8400 C.3   1 <1>   0.2800 
 19 C        5.8860     1.6540     2.2390 C.2   1 <1>   0.5690 
 20 O       -5.0120     1.8390     0.3480 O.3   1 <1>  -0.5600 
 21 C       -4.4600     2.0370    -1.9830 C.3   1 <1>  -0.2400 
 22 C       -6.3380     0.6250    -1.1330 C.3   1 <1>  -0.2400 
 23 O        6.3770     2.7480     2.3680 O.2   1 <1>  -0.5700 
 24 N        6.1620     0.8010     1.2040 N.am  1 <1>  -0.5470 
 25 C        7.0180     0.9080     0.0990 C.ar  1 <1>   0.1170 
 26 C        8.0330     1.8540    -0.0010 C.ar  1 <1>  -0.1500 
 27 C        6.8500     0.0120    -0.9510 C.ar  1 <1>  -0.1500 
 28 C        8.8500     1.9040    -1.1160 C.ar  1 <1>  -0.1500 
 29 C        7.6660     0.0600    -2.0670 C.ar  1 <1>  -0.1500 
 30 C        8.6730     1.0060    -2.1560 C.ar  1 <1>  -0.1440 
 31 C        9.5690     1.0640    -3.3800 C.3   1 <1>  -0.0970 
 32 H       -1.3790     2.8280     1.9650 H     1 <1>   0.1500 
 33 H       -4.4550    -0.8090    -0.0020 H     1 <1>   0.0800 
 34 H       -3.7530    -0.5360    -1.5640 H     1 <1>   0.0800 
 35 H        2.9860     2.9930     3.5990 H     1 <1>   0.0600 
 36 H        5.1720     0.2330     3.6580 H     1 <1>   0.0800 
 37 H        4.9250     1.8880     4.1220 H     1 <1>   0.0800 
 38 H       -3.6790     3.3490     0.2610 H     1 <1>   0.0800 
 39 H       -4.0470     2.7380     1.8540 H     1 <1>   0.0800 
 40 H       -3.4350     2.3360    -1.8640 H     1 <1>   0.0800 
 41 H       -5.0850     2.9110    -2.0310 H     1 <1>   0.0800 
 42 H       -4.5360     1.5180    -2.9210 H     1 <1>   0.0800 
 43 H       -6.7010     0.0250    -0.3180 H     1 <1>   0.0800 
 44 H       -6.3520     0.0300    -2.0280 H     1 <1>   0.0800 
 45 H       -7.0000     1.4610    -1.2690 H     1 <1>   0.0800 
 46 H        5.5790    -0.0470     1.1940 H     1 <1>   0.3700 
 47 H        8.1960     2.5590     0.7930 H     1 <1>   0.1500 
 48 H        6.0730    -0.7290    -0.8980 H     1 <1>   0.1500 
 49 H        9.6250     2.6470    -1.1700 H     1 <1>   0.1500 
 50 H        7.5140    -0.6430    -2.8670 H     1 <1>   0.1500 
 51 H        9.1480     1.7360    -4.1060 H     1 <1>   0.0800 
 52 H        9.6650     0.0890    -3.8230 H     1 <1>   0.0800 
 53 H       10.5490     1.4120    -3.1100 H     1 <1>   0.0800 
@<TRIPOS>BOND
  1   1   2  1   
  2   1   3  1   
  3   2   4  ar  
  4   2   5  ar  
  5   3   6  1   
  6   3   7  2   
  7   4   8  ar  
  8   5   7  1   
  9   5   9  ar  
 10   6  10  2   
 11   6  11  am  
 12   7  12  1   
 13   8  13  ar  
 14   8  14  1   
 15   9  13  ar  
 16   9  32  1   
 17  11  15  1   
 18  11  16  1   
 19  12  15  2   
 20  13  17  1   
 21  14  18  1   
 22  14  33  1   
 23  14  34  1   
 24  15  35  1   
 25  16  19  1   
 26  16  36  1   
 27  16  37  1   
 28  17  20  1   
 29  17  38  1   
 30  17  39  1   
 31  18  20  1   
 32  18  21  1   
 33  18  22  1   
 34  19  23  2   
 35  19  24  am  
 36  21  40  1   
 37  21  41  1   
 38  21  42  1   
 39  22  43  1   
 40  22  44  1   
 41  22  45  1   
 42  24  25  1   
 43  24  46  1   
 44  25  26  ar  
 45  25  27  ar  
 46  26  28  ar  
 47  26  47  1   
 48  27  29  ar  
 49  27  48  1   
 50  28  30  ar  
 51  28  49  1   
 52  29  30  ar  
 53  29  50  1   
 54  30  31  1   
 55  31  51  1   
 56  31  52  1   
 57  31  53  1   
@<TRIPOS>SUBSTRUCTURE
  1 ****   3 GROUP 4 **** **** 0

# MOE 2024.06 (io_trps.svl 2023.06)
