@<TRIPOS>MOLECULE
8-(2-Methoxy-phenyl)-1,6-dimethyl-3-propyl-5,6,7,8-tetrahydro-1H-1,3,4b,8,9-pent
54 57 1 0 0 
SMALL
USER_CHARGES


@<TRIPOS>ATOM
  1 O        1.1580     0.1650     1.5240 O.2   1 <1>  -0.5740 
  2 C        2.0420     0.9080     1.1470 C.2   1 <1>   0.6870 
  3 N        1.7900     2.2660     0.9710 N.am  1 <1>  -0.4250 
  4 N        3.3060     0.3940     0.8860 N.am  1 <1>  -0.4410 
  5 C        2.7800     3.1310     0.5260 C.2   1 <1>   0.7000 
  6 C        0.4200     2.7980     1.2390 C.3   1 <1>   0.1330 
  7 C        4.2750     1.2600     0.4200 C.2   1 <1>   0.4210 
  8 C        3.6010    -1.0580     1.0700 C.3   1 <1>   0.0530 
  9 O        2.5640     4.3230     0.3850 O.2   1 <1>  -0.5740 
 10 C        4.0690     2.5820     0.2370 C.2   1 <1>   0.2710 
 11 C       -0.4260     2.7370    -0.0370 C.3   1 <1>  -0.1670 
 12 N        5.5610     0.9720     0.0840 N.pl3 1 <1>  -0.7030 
 13 N        5.2860     3.1050    -0.2220 N.pl3 1 <1>  -0.7670 
 14 C       -1.8380     3.2770     0.2110 C.3   1 <1>  -0.2460 
 15 C        6.1550     2.1030    -0.2880 C.cat 1 <1>   1.0690 
 16 C        5.5950     4.5150    -0.5410 C.3   1 <1>   0.3490 
 17 N        7.4330     2.2580    -0.6850 N.pl3 1 <1>  -0.5790 
 18 C        6.8550     4.5740    -1.4230 C.3   1 <1>  -0.0870 
 19 C        8.3500     1.1910    -0.7830 C.ar  1 <1>   0.3050 
 20 C        7.9570     3.6390    -0.8900 C.3   1 <1>   0.1610 
 21 C        7.3780     6.0140    -1.5340 C.3   1 <1>  -0.2460 
 22 C        8.6710     0.3810     0.3170 C.ar  1 <1>   0.0750 
 23 C        8.9490     0.9280    -2.0090 C.ar  1 <1>  -0.1570 
 24 O        8.0630     0.6440     1.5110 O.3   1 <1>  -0.3680 
 25 C        9.5770    -0.6640     0.1670 C.ar  1 <1>  -0.1570 
 26 C        9.8490    -0.1120    -2.1510 C.ar  1 <1>  -0.1570 
 27 C        8.6110     0.1630     2.7230 C.3   1 <1>   0.0330 
 28 C       10.1620    -0.9060    -1.0630 C.ar  1 <1>  -0.1570 
 29 H        0.4810     3.8150     1.5870 H     1 <1>   0.0730 
 30 H       -0.0530     2.2210     2.0160 H     1 <1>   0.0730 
 31 H        2.8860    -1.5100     1.7360 H     1 <1>   0.0730 
 32 H        4.5810    -1.1890     1.4950 H     1 <1>   0.0730 
 33 H        3.5510    -1.5600     0.1200 H     1 <1>   0.0730 
 34 H       -0.4990     1.7170    -0.3730 H     1 <1>   0.0730 
 35 H        0.0390     3.3250    -0.8090 H     1 <1>   0.0730 
 36 H        6.0740     0.1020     0.2060 H     1 <1>   0.4450 
 37 H       -2.3370     2.6950     0.9660 H     1 <1>   0.0730 
 38 H       -2.4150     3.2240    -0.6960 H     1 <1>   0.0730 
 39 H       -1.8000     4.3040     0.5310 H     1 <1>   0.0730 
 40 H        5.7570     5.0530     0.3790 H     1 <1>   0.0730 
 41 H        4.7630     4.9680    -1.0570 H     1 <1>   0.0730 
 42 H        6.5870     4.2500    -2.4140 H     1 <1>   0.0730 
 43 H        8.7780     3.6210    -1.5870 H     1 <1>   0.0730 
 44 H        8.3300     4.0090     0.0510 H     1 <1>   0.0730 
 45 H        7.6710     6.3960    -0.5710 H     1 <1>   0.0730 
 46 H        6.6190     6.6610    -1.9410 H     1 <1>   0.0730 
 47 H        8.2320     6.0540    -2.1890 H     1 <1>   0.0730 
 48 H        8.7110     1.5350    -2.8640 H     1 <1>   0.1430 
 49 H        9.8430    -1.3040     0.9880 H     1 <1>   0.1430 
 50 H       10.3080    -0.3070    -3.1060 H     1 <1>   0.1430 
 51 H        8.0780     0.6170     3.5390 H     1 <1>   0.0730 
 52 H        9.6510     0.4370     2.7730 H     1 <1>   0.0730 
 53 H        8.4950    -0.9060     2.7650 H     1 <1>   0.0730 
 54 H       10.8650    -1.7160    -1.1760 H     1 <1>   0.1430 
@<TRIPOS>BOND
  1   1   2  2   
  2   2   3  am  
  3   2   4  am  
  4   3   5  am  
  5   3   6  1   
  6   4   7  1   
  7   4   8  1   
  8   5   9  2   
  9   5  10  1   
 10   6  11  1   
 11   6  29  1   
 12   6  30  1   
 13   7  10  2   
 14   7  12  1   
 15   8  31  1   
 16   8  32  1   
 17   8  33  1   
 18  10  13  1   
 19  11  14  1   
 20  11  34  1   
 21  11  35  1   
 22  12  15  ar  
 23  12  36  1   
 24  13  15  ar  
 25  13  16  1   
 26  14  37  1   
 27  14  38  1   
 28  14  39  1   
 29  15  17  ar  
 30  16  18  1   
 31  16  40  1   
 32  16  41  1   
 33  17  19  1   
 34  17  20  1   
 35  18  20  1   
 36  18  21  1   
 37  18  42  1   
 38  19  22  ar  
 39  19  23  ar  
 40  20  43  1   
 41  20  44  1   
 42  21  45  1   
 43  21  46  1   
 44  21  47  1   
 45  22  24  1   
 46  22  25  ar  
 47  23  26  ar  
 48  23  48  1   
 49  24  27  1   
 50  25  28  ar  
 51  25  49  1   
 52  26  28  ar  
 53  26  50  1   
 54  27  51  1   
 55  27  52  1   
 56  27  53  1   
 57  28  54  1   
@<TRIPOS>SUBSTRUCTURE
  1 ****  12 GROUP 4 **** **** 0

# MOE 2024.06 (io_trps.svl 2023.06)
