@<TRIPOS>MOLECULE
N-(5-Methyl-isoxazol-3-yl)-2-pyrrolidin-1-yl-acetamide
31 32 1 0 0 
SMALL
USER_CHARGES


@<TRIPOS>ATOM
  1 O       -0.3670    -0.8780     0.9440 O.2   1 <1>  -0.5700 
  2 C       -0.2320    -1.5320    -0.0640 C.2   1 <1>   0.5690 
  3 N       -1.2680    -1.8490    -0.8920 N.am  1 <1>  -0.4930 
  4 C        1.1930    -2.0040    -0.4090 C.3   1 <1>   0.4040 
  5 C       -2.6180    -1.5170    -0.7860 C.2   1 <1>   0.3520 
  6 N        2.2740    -1.2020     0.2810 N.4   1 <1>  -0.9590 
  7 N       -3.4460    -1.8700    -1.7020 N.2   1 <1>  -0.4100 
  8 C       -3.2710    -0.8110     0.2270 C.2   1 <1>  -0.1500 
  9 C        2.3680     0.2030    -0.1850 C.3   1 <1>   0.3430 
 10 C        3.6390    -1.7710     0.2010 C.3   1 <1>   0.3430 
 11 O       -4.6160    -1.4190    -1.3240 O.3   1 <1>  -0.0190 
 12 C       -4.5460    -0.7860    -0.1830 C.2   1 <1>  -0.0400 
 13 C        3.7290     0.6680     0.3120 C.3   1 <1>  -0.1600 
 14 C        4.5530    -0.6030     0.5460 C.3   1 <1>  -0.1600 
 15 C       -5.7960    -0.1880     0.4280 C.3   1 <1>  -0.0600 
 16 H       -1.1060    -2.4070    -1.7300 H     1 <1>   0.3700 
 17 H        1.3300    -1.9510    -1.4750 H     1 <1>   0.0800 
 18 H        1.2750    -3.0350    -0.1110 H     1 <1>   0.0800 
 19 H        1.9990    -1.1390     1.2750 H     1 <1>   0.4500 
 20 H       -2.8280    -0.3980     1.1140 H     1 <1>   0.1500 
 21 H        1.5680     0.8090     0.2130 H     1 <1>   0.0800 
 22 H        2.3470     0.2390    -1.2620 H     1 <1>   0.0800 
 23 H        3.8420    -2.1010    -0.8050 H     1 <1>   0.0800 
 24 H        3.7710    -2.5950     0.8850 H     1 <1>   0.0800 
 25 H        3.6110     1.2130     1.2340 H     1 <1>   0.0800 
 26 H        4.1920     1.3200    -0.4100 H     1 <1>   0.0800 
 27 H        5.4370    -0.6240    -0.0700 H     1 <1>   0.0800 
 28 H        4.8570    -0.6680     1.5770 H     1 <1>   0.0800 
 29 H       -5.5610     0.2930     1.3600 H     1 <1>   0.0800 
 30 H       -6.5200    -0.9620     0.6060 H     1 <1>   0.0800 
 31 H       -6.2190     0.5370    -0.2440 H     1 <1>   0.0800 
@<TRIPOS>BOND
  1   1   2  2   
  2   2   3  am  
  3   2   4  1   
  4   3   5  1   
  5   3  16  1   
  6   4   6  1   
  7   4  17  1   
  8   4  18  1   
  9   5   7  2   
 10   5   8  1   
 11   6   9  1   
 12   6  10  1   
 13   6  19  1   
 14   7  11  1   
 15   8  12  2   
 16   8  20  1   
 17   9  13  1   
 18   9  21  1   
 19   9  22  1   
 20  10  14  1   
 21  10  23  1   
 22  10  24  1   
 23  11  12  1   
 24  12  15  1   
 25  13  14  1   
 26  13  25  1   
 27  13  26  1   
 28  14  27  1   
 29  14  28  1   
 30  15  29  1   
 31  15  30  1   
 32  15  31  1   
@<TRIPOS>SUBSTRUCTURE
  1 ****   2 GROUP 4 **** **** 0

# MOE 2024.06 (io_trps.svl 2023.06)
