@<TRIPOS>MOLECULE
Benzo[1,3]dioxole-5-carboxylic acid (2-hydroxy-ethyl)-amide
26 27 1 0 0 
SMALL
USER_CHARGES


@<TRIPOS>ATOM
  1 O        0.2220     0.9930     0.9870 O.2   1 <1>  -0.5700 
  2 C        0.0290     1.9080     0.2100 C.2   1 <1>   0.5440 
  3 N        1.0700     2.3150    -0.5780 N.am  1 <1>  -0.7300 
  4 C       -1.2720     2.5450     0.1170 C.ar  1 <1>   0.0860 
  5 C        2.4210     1.7020    -0.5680 C.3   1 <1>   0.1400 
  6 C       -2.4350     1.8260     0.4150 C.ar  1 <1>  -0.1500 
  7 C       -1.4090     3.8900    -0.2690 C.ar  1 <1>  -0.1500 
  8 C        3.2410     2.2560     0.6000 C.3   1 <1>   0.1200 
  9 C       -3.6600     2.4490     0.3080 C.ar  1 <1>   0.0830 
 10 C       -2.6500     4.5050    -0.3730 C.ar  1 <1>  -0.1500 
 11 O        4.5010     1.6750     0.5920 O.3   1 <1>  -0.6800 
 12 O       -4.8740     1.9390     0.5410 O.3   1 <1>  -0.3630 
 13 C       -3.7680     3.7530    -0.0770 C.ar  1 <1>   0.0830 
 14 C       -5.8130     2.9840     0.2920 C.3   1 <1>   0.4000 
 15 O       -5.0490     4.1210    -0.1040 O.3   1 <1>  -0.3630 
 16 H        0.9050     3.0190    -1.3000 H     1 <1>   0.3700 
 17 H        2.9170     1.9180    -1.4980 H     1 <1>   0.0800 
 18 H        2.3200     0.6350    -0.4630 H     1 <1>   0.0800 
 19 H       -2.3780     0.7980     0.7250 H     1 <1>   0.1500 
 20 H       -0.5300     4.4710    -0.4840 H     1 <1>   0.1500 
 21 H        2.7690     2.0300     1.5410 H     1 <1>   0.0800 
 22 H        3.3690     3.3190     0.4990 H     1 <1>   0.0800 
 23 H       -2.7540     5.5330    -0.6680 H     1 <1>   0.1500 
 24 H        4.4460     0.7390     0.8690 H     1 <1>   0.4000 
 25 H       -6.3510     3.2080     1.1960 H     1 <1>   0.0800 
 26 H       -6.4730     2.6950    -0.5060 H     1 <1>   0.0800 
@<TRIPOS>BOND
  1   1   2  2   
  2   2   3  am  
  3   2   4  1   
  4   3   5  1   
  5   3  16  1   
  6   4   6  ar  
  7   4   7  ar  
  8   5   8  1   
  9   5  17  1   
 10   5  18  1   
 11   6   9  ar  
 12   6  19  1   
 13   7  10  ar  
 14   7  20  1   
 15   8  11  1   
 16   8  21  1   
 17   8  22  1   
 18   9  12  1   
 19   9  13  ar  
 20  10  13  ar  
 21  10  23  1   
 22  11  24  1   
 23  12  14  1   
 24  13  15  1   
 25  14  15  1   
 26  14  25  1   
 27  14  26  1   
@<TRIPOS>SUBSTRUCTURE
  1 ****   4 GROUP 4 **** **** 0

# MOE 2024.06 (io_trps.svl 2023.06)
