@<TRIPOS>MOLECULE
1,6-Dimethyl-3-(2-morpholin-4-yl-ethyl)-8-phenyl-5,6,7,8-tetrahydro-1H-1,3,4b,8,
60 64 1 0 0 
SMALL
USER_CHARGES


@<TRIPOS>ATOM
  1 O        0.8110    -0.1420     0.5150 O.2   1 <1>  -0.5740 
  2 C        1.7660     0.6020     0.5940 C.2   1 <1>   0.6870 
  3 N        1.5780     1.9550     0.8550 N.am  1 <1>  -0.4250 
  4 N        3.0490     0.1000     0.4110 N.am  1 <1>  -0.4410 
  5 C        2.6450     2.8420     0.8700 C.2   1 <1>   0.7000 
  6 C        0.1920     2.4620     1.1070 C.3   1 <1>   0.1340 
  7 C        4.1060     0.9890     0.4340 C.2   1 <1>   0.4210 
  8 C        3.2720    -1.3560     0.1590 C.3   1 <1>   0.0540 
  9 O        2.4740     4.0350     1.0550 O.2   1 <1>  -0.5740 
 10 C        3.9560     2.3150     0.6510 C.2   1 <1>   0.2720 
 11 C       -0.4980     2.8240    -0.2120 C.3   1 <1>   0.1040 
 12 N        5.4300     0.7250     0.2500 N.pl3 1 <1>  -0.7030 
 13 N        5.2450     2.8650     0.5940 N.pl3 1 <1>  -0.7670 
 14 N       -1.8490     3.3450     0.0340 N.3   1 <1>  -0.8120 
 15 C        6.0930     1.8740     0.3560 C.cat 1 <1>   1.0690 
 16 C        5.6310     4.2830     0.7660 C.3   1 <1>   0.3490 
 17 C       -2.8170     2.2650     0.3270 C.3   1 <1>   0.1040 
 18 C       -2.3320     4.1180    -1.1270 C.3   1 <1>   0.1040 
 19 N        7.4230     2.0510     0.2490 N.pl3 1 <1>  -0.5790 
 20 C        7.0070     4.5150     0.1150 C.3   1 <1>  -0.0860 
 21 C       -4.2410     2.8250     0.5050 C.3   1 <1>   0.1140 
 22 C       -3.7680     4.6260    -0.9020 C.3   1 <1>   0.1140 
 23 C        8.3080     1.0020    -0.0050 C.ar  1 <1>   0.3060 
 24 C        8.0070     3.4020     0.4860 C.3   1 <1>   0.1620 
 25 C        7.5690     5.8920     0.4980 C.3   1 <1>  -0.2460 
 26 O       -4.6290     3.5590    -0.6210 O.3   1 <1>  -0.5640 
 27 C        8.9410     0.3460     1.0430 C.ar  1 <1>  -0.1560 
 28 C        8.5460     0.5860    -1.3090 C.ar  1 <1>  -0.1560 
 29 C        9.7890    -0.7170     0.7930 C.ar  1 <1>  -0.1560 
 30 C        9.3950    -0.4770    -1.5610 C.ar  1 <1>  -0.1560 
 31 C       10.0130    -1.1300    -0.5090 C.ar  1 <1>  -0.1560 
 32 H        0.2240     3.3340     1.7370 H     1 <1>   0.0740 
 33 H       -0.3750     1.7070     1.6220 H     1 <1>   0.0740 
 34 H        2.4420    -1.9360     0.5270 H     1 <1>   0.0740 
 35 H        4.1610    -1.6920     0.6630 H     1 <1>   0.0740 
 36 H        3.3700    -1.5310    -0.8980 H     1 <1>   0.0740 
 37 H       -0.5520     1.9640    -0.8590 H     1 <1>   0.0740 
 38 H        0.0860     3.5880    -0.6960 H     1 <1>   0.0740 
 39 H        5.8700    -0.1730     0.0630 H     1 <1>   0.4460 
 40 H        5.6720     4.5100     1.8180 H     1 <1>   0.0740 
 41 H        4.8960     4.9250     0.3090 H     1 <1>   0.0740 
 42 H       -2.5350     1.7550     1.2300 H     1 <1>   0.0740 
 43 H       -2.8250     1.5470    -0.4760 H     1 <1>   0.0740 
 44 H       -2.3150     3.5050    -2.0120 H     1 <1>   0.0740 
 45 H       -1.6870     4.9630    -1.2880 H     1 <1>   0.0740 
 46 H        6.8770     4.5080    -0.9550 H     1 <1>   0.0740 
 47 H       -4.2880     3.4660     1.3670 H     1 <1>   0.0740 
 48 H       -4.9440     2.0210     0.6300 H     1 <1>   0.0740 
 49 H       -4.1330     5.1180    -1.7850 H     1 <1>   0.0740 
 50 H       -3.7970     5.3180    -0.0790 H     1 <1>   0.0740 
 51 H        8.9030     3.5140    -0.1040 H     1 <1>   0.0740 
 52 H        8.2800     3.4850     1.5250 H     1 <1>   0.0740 
 53 H        7.7280     5.9650     1.5610 H     1 <1>   0.0740 
 54 H        6.8890     6.6730     0.2020 H     1 <1>   0.0740 
 55 H        8.5080     6.0660     0.0020 H     1 <1>   0.0740 
 56 H        8.7750     0.6640     2.0570 H     1 <1>   0.1440 
 57 H        8.0760     1.0950    -2.1310 H     1 <1>   0.1440 
 58 H       10.2820    -1.2260     1.6060 H     1 <1>   0.1440 
 59 H        9.5820    -0.7980    -2.5730 H     1 <1>   0.1440 
 60 H       10.6760    -1.9570    -0.7050 H     1 <1>   0.1440 
@<TRIPOS>BOND
  1   1   2  2   
  2   2   3  am  
  3   2   4  am  
  4   3   5  am  
  5   3   6  1   
  6   4   7  1   
  7   4   8  1   
  8   5   9  2   
  9   5  10  1   
 10   6  11  1   
 11   6  32  1   
 12   6  33  1   
 13   7  10  2   
 14   7  12  1   
 15   8  34  1   
 16   8  35  1   
 17   8  36  1   
 18  10  13  1   
 19  11  14  1   
 20  11  37  1   
 21  11  38  1   
 22  12  15  ar  
 23  12  39  1   
 24  13  15  ar  
 25  13  16  1   
 26  14  17  1   
 27  14  18  1   
 28  15  19  ar  
 29  16  20  1   
 30  16  40  1   
 31  16  41  1   
 32  17  21  1   
 33  17  42  1   
 34  17  43  1   
 35  18  22  1   
 36  18  44  1   
 37  18  45  1   
 38  19  23  1   
 39  19  24  1   
 40  20  24  1   
 41  20  25  1   
 42  20  46  1   
 43  21  26  1   
 44  21  47  1   
 45  21  48  1   
 46  22  26  1   
 47  22  49  1   
 48  22  50  1   
 49  23  27  ar  
 50  23  28  ar  
 51  24  51  1   
 52  24  52  1   
 53  25  53  1   
 54  25  54  1   
 55  25  55  1   
 56  27  29  ar  
 57  27  56  1   
 58  28  30  ar  
 59  28  57  1   
 60  29  31  ar  
 61  29  58  1   
 62  30  31  ar  
 63  30  59  1   
 64  31  60  1   
@<TRIPOS>SUBSTRUCTURE
  1 ****  10 GROUP 4 **** **** 0

# MOE 2024.06 (io_trps.svl 2023.06)
