@<TRIPOS>MOLECULE
4-(4-Methyl-piperazin-1-yl)-3-[(thiophene-2-carbonyl)-amino]-benzoic acid methyl
47 49 1 0 0 
SMALL
USER_CHARGES


@<TRIPOS>ATOM
  1 S        0.5490    -1.3510    -0.9860 S.3   1 <1>  -0.0800 
  2 C       -0.8590    -1.5200     0.0700 C.2   1 <1>  -0.0450 
  3 C        1.5020    -0.6050     0.2760 C.2   1 <1>  -0.1100 
  4 C       -2.0510    -2.1330    -0.4600 C.2   1 <1>   0.7150 
  5 C       -0.5420    -1.0150     1.2930 C.2   1 <1>  -0.1500 
  6 C        0.7830    -0.5020     1.4080 C.2   1 <1>  -0.1500 
  7 O       -2.1530    -2.4120    -1.6410 O.2   1 <1>  -0.5700 
  8 N       -3.0810    -2.4210     0.3930 N.am  1 <1>  -0.5470 
  9 C       -4.2020    -3.2370     0.1580 C.ar  1 <1>   0.1170 
 10 C       -4.0890    -4.6300    -0.0120 C.ar  1 <1>   0.1000 
 11 C       -5.4510    -2.6440     0.1290 C.ar  1 <1>  -0.1500 
 12 N       -2.8580    -5.2890     0.0010 N.pl3 1 <1>  -0.8380 
 13 C       -5.2500    -5.3650    -0.2040 C.ar  1 <1>  -0.1500 
 14 C       -6.6260    -3.3740    -0.0630 C.ar  1 <1>   0.0860 
 15 C       -2.5230    -6.2660     1.0790 C.3   1 <1>   0.2090 
 16 C       -2.0840    -5.3600    -1.2790 C.3   1 <1>   0.2090 
 17 C       -6.4890    -4.7540    -0.2290 C.ar  1 <1>  -0.1500 
 18 C       -7.9160    -2.7160    -0.0830 C.2   1 <1>   0.6340 
 19 C       -2.2890    -7.6880     0.5210 C.3   1 <1>   0.3430 
 20 C       -1.8680    -6.8100    -1.7540 C.3   1 <1>   0.3430 
 21 O       -8.0600    -1.5280     0.1270 O.2   1 <1>  -0.5700 
 22 O       -9.0000    -3.4590    -0.3390 O.3   1 <1>  -0.4300 
 23 N       -1.3460    -7.7060    -0.6570 N.4   1 <1>  -0.9590 
 24 C      -10.2960    -2.8940    -0.3790 C.3   1 <1>   0.0400 
 25 C       -1.1150    -9.0940    -1.1560 C.3   1 <1>   0.2630 
 26 H        2.5110    -0.3180     0.0360 H     1 <1>   0.1500 
 27 H       -1.2030    -0.9800     2.1400 H     1 <1>   0.1500 
 28 H        1.1390    -0.0780     2.3310 H     1 <1>   0.1500 
 29 H       -2.9750    -2.0770     1.3430 H     1 <1>   0.3700 
 30 H       -5.5230    -1.5780     0.2550 H     1 <1>   0.1500 
 31 H       -5.1850    -6.4270    -0.3410 H     1 <1>   0.1500 
 32 H       -3.3210    -6.2920     1.8010 H     1 <1>   0.0800 
 33 H       -1.6370    -5.9300     1.5880 H     1 <1>   0.0800 
 34 H       -1.1320    -4.8770    -1.1440 H     1 <1>   0.0800 
 35 H       -2.6130    -4.8220    -2.0490 H     1 <1>   0.0800 
 36 H       -7.3680    -5.3560    -0.3820 H     1 <1>   0.1500 
 37 H       -3.2420    -8.0910     0.2220 H     1 <1>   0.0800 
 38 H       -1.9020    -8.3110     1.3100 H     1 <1>   0.0800 
 39 H       -1.1820    -6.8030    -2.5840 H     1 <1>   0.0800 
 40 H       -2.8120    -7.1880    -2.1100 H     1 <1>   0.0800 
 41 H       -0.4510    -7.3050    -0.3430 H     1 <1>   0.4500 
 42 H      -11.0010    -3.6740    -0.6030 H     1 <1>   0.0800 
 43 H      -10.3220    -2.1380    -1.1450 H     1 <1>   0.0800 
 44 H      -10.5150    -2.4590     0.5810 H     1 <1>   0.0800 
 45 H       -2.0400    -9.5300    -1.4960 H     1 <1>   0.0800 
 46 H       -0.7100    -9.7120    -0.3700 H     1 <1>   0.0800 
 47 H       -0.4160    -9.0850    -1.9770 H     1 <1>   0.0800 
@<TRIPOS>BOND
  1   1   2  1   
  2   1   3  1   
  3   2   4  1   
  4   2   5  2   
  5   3   6  2   
  6   3  26  1   
  7   4   7  2   
  8   4   8  am  
  9   5   6  1   
 10   5  27  1   
 11   6  28  1   
 12   8   9  1   
 13   8  29  1   
 14   9  10  ar  
 15   9  11  ar  
 16  10  12  1   
 17  10  13  ar  
 18  11  14  ar  
 19  11  30  1   
 20  12  15  1   
 21  12  16  1   
 22  13  17  ar  
 23  13  31  1   
 24  14  17  ar  
 25  14  18  1   
 26  15  19  1   
 27  15  32  1   
 28  15  33  1   
 29  16  20  1   
 30  16  34  1   
 31  16  35  1   
 32  17  36  1   
 33  18  21  2   
 34  18  22  1   
 35  19  23  1   
 36  19  37  1   
 37  19  38  1   
 38  20  23  1   
 39  20  39  1   
 40  20  40  1   
 41  22  24  1   
 42  23  25  1   
 43  23  41  1   
 44  24  42  1   
 45  24  43  1   
 46  24  44  1   
 47  25  45  1   
 48  25  46  1   
 49  25  47  1   
@<TRIPOS>SUBSTRUCTURE
  1 ****   9 GROUP 4 **** **** 0

# MOE 2024.06 (io_trps.svl 2023.06)
