@<TRIPOS>MOLECULE
1-(2,5-Dimethoxy-benzenesulfonyl)-piperidine-4-carboxylic acid (3-chloro-phenyl)
52 54 1 0 0 
SMALL
USER_CHARGES


@<TRIPOS>ATOM
  1 CL      -1.6550     3.7660    -0.5820 Cl    1 <1>  -0.1770 
  2 C       -2.5360     2.6570     0.4370 C.ar  1 <1>   0.1770 
  3 C       -3.7690     2.1950     0.0230 C.ar  1 <1>  -0.1500 
  4 C       -1.9830     2.2610     1.6400 C.ar  1 <1>  -0.1500 
  5 C       -4.4860     1.3100     0.8200 C.ar  1 <1>   0.1170 
  6 C       -2.6890     1.3830     2.4440 C.ar  1 <1>  -0.1500 
  7 N       -5.7420     0.8700     0.3710 N.am  1 <1>  -0.5470 
  8 C       -3.9270     0.9160     2.0350 C.ar  1 <1>  -0.1500 
  9 C       -6.4790    -0.2350     0.7060 C.2   1 <1>   0.5690 
 10 O       -6.1030    -1.0710     1.4900 O.2   1 <1>  -0.5700 
 11 C       -7.8420    -0.4080     0.0350 C.3   1 <1>  -0.0190 
 12 C       -8.9880    -0.3740     1.0570 C.3   1 <1>  -0.1600 
 13 C       -7.9250    -1.7200    -0.7610 C.3   1 <1>  -0.1600 
 14 C      -10.3430    -0.5950     0.3810 C.3   1 <1>   0.1960 
 15 C       -9.3110    -1.9040    -1.3850 C.3   1 <1>   0.1960 
 16 N      -10.3540    -1.8630    -0.3570 N.am  1 <1>  -0.8490 
 17 S      -11.8750    -2.1870    -1.0400 S.o2  1 <1>   1.4470 
 18 O      -11.7250    -3.4150    -1.7940 O.2   1 <1>  -0.6500 
 19 O      -12.2590    -0.9990    -1.7750 O.2   1 <1>  -0.6500 
 20 C      -12.9580    -2.5350     0.3730 C.ar  1 <1>  -0.0090 
 21 C      -13.6640    -1.5370     1.0420 C.ar  1 <1>   0.0830 
 22 C      -13.0900    -3.8400     0.8370 C.ar  1 <1>  -0.1500 
 23 O      -13.5510    -0.2450     0.6690 O.3   1 <1>  -0.3620 
 24 C      -14.4760    -1.8330     2.1270 C.ar  1 <1>  -0.1500 
 25 C      -13.9060    -4.1500     1.9200 C.ar  1 <1>   0.0830 
 26 C      -14.6310     0.2920    -0.0630 C.3   1 <1>   0.0400 
 27 C      -14.5990    -3.1380     2.5620 C.ar  1 <1>  -0.1500 
 28 O      -14.0740    -5.4060     2.4050 O.3   1 <1>  -0.3620 
 29 C      -13.4100    -6.5080     1.8260 C.3   1 <1>   0.0400 
 30 H       -4.1600     2.5260    -0.9200 H     1 <1>   0.1500 
 31 H       -1.0200     2.6350     1.9390 H     1 <1>   0.1500 
 32 H       -2.2770     1.0610     3.3850 H     1 <1>   0.1500 
 33 H       -6.1530     1.4540    -0.3530 H     1 <1>   0.3700 
 34 H       -4.4600     0.2390     2.6780 H     1 <1>   0.1500 
 35 H       -7.9890     0.4050    -0.6530 H     1 <1>   0.0800 
 36 H       -8.9950     0.5730     1.5670 H     1 <1>   0.0800 
 37 H       -8.8410    -1.1420     1.7970 H     1 <1>   0.0800 
 38 H       -7.7260    -2.5560    -0.1120 H     1 <1>   0.0800 
 39 H       -7.1810    -1.7240    -1.5370 H     1 <1>   0.0800 
 40 H      -10.5620     0.2240    -0.2870 H     1 <1>   0.0800 
 41 H      -11.0980    -0.6140     1.1470 H     1 <1>   0.0800 
 42 H       -9.3330    -2.8570    -1.8880 H     1 <1>   0.0800 
 43 H       -9.4930    -1.1350    -2.1200 H     1 <1>   0.0800 
 44 H      -12.5390    -4.6110     0.3310 H     1 <1>   0.1500 
 45 H      -15.0030    -1.0430     2.6320 H     1 <1>   0.1500 
 46 H      -14.3850     1.3030    -0.3310 H     1 <1>   0.0800 
 47 H      -15.5170     0.2750     0.5470 H     1 <1>   0.0800 
 48 H      -14.7750    -0.2960    -0.9530 H     1 <1>   0.0800 
 49 H      -15.2260    -3.3810     3.4000 H     1 <1>   0.1500 
 50 H      -13.6930    -7.3920     2.3680 H     1 <1>   0.0800 
 51 H      -12.3480    -6.3570     1.9030 H     1 <1>   0.0800 
 52 H      -13.7130    -6.5980     0.7970 H     1 <1>   0.0800 
@<TRIPOS>BOND
  1   1   2  1   
  2   2   3  ar  
  3   2   4  ar  
  4   3   5  ar  
  5   3  30  1   
  6   4   6  ar  
  7   4  31  1   
  8   5   7  1   
  9   5   8  ar  
 10   6   8  ar  
 11   6  32  1   
 12   7   9  am  
 13   7  33  1   
 14   8  34  1   
 15   9  10  2   
 16   9  11  1   
 17  11  12  1   
 18  11  13  1   
 19  11  35  1   
 20  12  14  1   
 21  12  36  1   
 22  12  37  1   
 23  13  15  1   
 24  13  38  1   
 25  13  39  1   
 26  14  16  1   
 27  14  40  1   
 28  14  41  1   
 29  15  16  1   
 30  15  42  1   
 31  15  43  1   
 32  16  17  am  
 33  17  18  2   
 34  17  19  2   
 35  17  20  1   
 36  20  21  ar  
 37  20  22  ar  
 38  21  23  1   
 39  21  24  ar  
 40  22  25  ar  
 41  22  44  1   
 42  23  26  1   
 43  24  27  ar  
 44  24  45  1   
 45  25  27  ar  
 46  25  28  1   
 47  26  46  1   
 48  26  47  1   
 49  26  48  1   
 50  27  49  1   
 51  28  29  1   
 52  29  50  1   
 53  29  51  1   
 54  29  52  1   
@<TRIPOS>SUBSTRUCTURE
  1 ****  12 GROUP 4 **** **** 0

# MOE 2024.06 (io_trps.svl 2023.06)
