@<TRIPOS>MOLECULE
1-Allyl-4-hydroxy-6,7-dimethoxy-2-oxo-1,2-dihydro-quinoline-3-carboxylic acid cy
53 55 1 0 0 
SMALL
USER_CHARGES


@<TRIPOS>ATOM
  1 O       -0.1470     0.7270    -0.1240 O.2   1 <1>  -0.5700 
  2 C       -1.2660     1.2240    -0.2810 C.2   1 <1>   0.5350 
  3 N       -2.3570     0.3620    -0.3210 N.am  1 <1>  -0.4770 
  4 C       -1.4480     2.6130    -0.4090 C.3   1 <1>  -0.7150 
  5 C       -3.6780     0.8520    -0.3190 C.ar  1 <1>   0.1170 
  6 C       -2.0900    -1.0950    -0.5060 C.3   1 <1>   0.2780 
  7 C       -2.7540     3.1230    -0.3410 C.2   1 <1>   0.3890 
  8 C       -0.3550     3.4710    -0.6170 C.2   1 <1>   0.5350 
  9 C       -3.8890     2.2350    -0.3430 C.ar  1 <1>   0.0860 
 10 C       -4.7920     0.0100    -0.2820 C.ar  1 <1>  -0.1500 
 11 C       -2.2790    -1.8960     0.7820 C.2   1 <1>  -0.2880 
 12 O       -2.9710     4.3370    -0.2390 O.2   1 <1>  -0.5700 
 13 O       -0.3230     4.3140    -1.5090 O.2   1 <1>  -0.5700 
 14 N        0.7460     3.3040     0.1620 N.am  1 <1>  -0.7300 
 15 C       -5.2010     2.7180    -0.3690 C.ar  1 <1>  -0.1500 
 16 C       -6.0860     0.4910    -0.2950 C.ar  1 <1>   0.0820 
 17 C       -2.5490    -1.4170     2.0020 C.2   1 <1>  -0.3000 
 18 C        2.0730     3.8110    -0.1980 C.3   1 <1>   0.2200 
 19 C       -6.3030     1.8770    -0.3590 C.ar  1 <1>   0.0820 
 20 O       -7.0590    -0.4600    -0.2460 O.3   1 <1>  -0.3630 
 21 C        2.7740     2.7790    -1.0880 C.3   1 <1>  -0.1600 
 22 C        2.8660     4.0640     1.0880 C.3   1 <1>  -0.1600 
 23 O       -7.5800     2.3670    -0.4260 O.3   1 <1>  -0.3630 
 24 C       -8.2830    -0.2240     0.4140 C.3   1 <1>   0.0400 
 25 C        4.2210     3.1940    -1.3970 C.3   1 <1>  -0.1600 
 26 C        4.3110     4.4850     0.7820 C.3   1 <1>  -0.1600 
 27 C       -7.8240     3.7290    -0.7100 C.3   1 <1>   0.0400 
 28 C        5.0120     3.4470    -0.1060 C.3   1 <1>  -0.1600 
 29 H       -1.0910    -1.2510    -0.8740 H     1 <1>   0.0800 
 30 H       -2.7520    -1.4690    -1.2650 H     1 <1>   0.0800 
 31 H       -4.6690    -1.0530    -0.2300 H     1 <1>   0.1500 
 32 H       -2.1600    -2.9500     0.6050 H     1 <1>   0.1500 
 33 H        0.7410     2.3480     0.5270 H     1 <1>   0.3700 
 34 H       -5.3160     3.7840    -0.3980 H     1 <1>   0.1500 
 35 H       -2.6710    -2.0250     2.8790 H     1 <1>   0.1500 
 36 H       -2.6640    -0.3670     2.2210 H     1 <1>   0.1500 
 37 H        1.9670     4.7380    -0.7370 H     1 <1>   0.0800 
 38 H        2.2210     2.6820    -2.0060 H     1 <1>   0.0800 
 39 H        2.7730     1.8240    -0.5920 H     1 <1>   0.0800 
 40 H        2.8750     3.1650     1.6790 H     1 <1>   0.0800 
 41 H        2.3750     4.8370     1.6520 H     1 <1>   0.0800 
 42 H       -8.0960     0.3400     1.3110 H     1 <1>   0.0800 
 43 H       -8.7200    -1.1740     0.6600 H     1 <1>   0.0800 
 44 H       -8.9350     0.3170    -0.2470 H     1 <1>   0.0800 
 45 H        4.2080     4.0920    -1.9910 H     1 <1>   0.0800 
 46 H        4.7000     2.4220    -1.9730 H     1 <1>   0.0800 
 47 H        4.8550     4.6010     1.7030 H     1 <1>   0.0800 
 48 H        4.3020     5.4370     0.2790 H     1 <1>   0.0800 
 49 H       -7.4520     4.3280     0.1020 H     1 <1>   0.0800 
 50 H       -8.8860     3.8650    -0.8070 H     1 <1>   0.0800 
 51 H       -7.3350     3.9870    -1.6330 H     1 <1>   0.0800 
 52 H        6.0020     3.7910    -0.3510 H     1 <1>   0.0800 
 53 H        5.1070     2.5220     0.4370 H     1 <1>   0.0800 
@<TRIPOS>BOND
  1   1   2  2   
  2   2   3  am  
  3   2   4  1   
  4   3   5  1   
  5   3   6  1   
  6   4   7  1   
  7   4   8  1   
  8   5   9  ar  
  9   5  10  ar  
 10   6  11  1   
 11   6  29  1   
 12   6  30  1   
 13   7   9  1   
 14   7  12  2   
 15   8  13  2   
 16   8  14  am  
 17   9  15  ar  
 18  10  16  ar  
 19  10  31  1   
 20  11  17  2   
 21  11  32  1   
 22  14  18  1   
 23  14  33  1   
 24  15  19  ar  
 25  15  34  1   
 26  16  19  ar  
 27  16  20  1   
 28  17  35  1   
 29  17  36  1   
 30  18  21  1   
 31  18  22  1   
 32  18  37  1   
 33  19  23  1   
 34  20  24  1   
 35  21  25  1   
 36  21  38  1   
 37  21  39  1   
 38  22  26  1   
 39  22  40  1   
 40  22  41  1   
 41  23  27  1   
 42  24  42  1   
 43  24  43  1   
 44  24  44  1   
 45  25  28  1   
 46  25  45  1   
 47  25  46  1   
 48  26  28  1   
 49  26  47  1   
 50  26  48  1   
 51  27  49  1   
 52  27  50  1   
 53  27  51  1   
 54  28  52  1   
 55  28  53  1   
@<TRIPOS>SUBSTRUCTURE
  1 ****   4 GROUP 4 **** **** 0

# MOE 2024.06 (io_trps.svl 2023.06)
