@<TRIPOS>MOLECULE
1-[2-Isopropyl-3-(toluene-4-sulfonyl)-imidazolidin-1-yl]-2-morpholin-4-yl-ethano
56 58 1 0 0 
SMALL
USER_CHARGES


@<TRIPOS>ATOM
  1 S        0.4470     1.2030     0.0470 S.o2  1 <1>   1.4470 
  2 O        1.3210     1.4120     1.1820 O.2   1 <1>  -0.6500 
  3 O       -0.2220     2.3510    -0.5260 O.2   1 <1>  -0.6500 
  4 N        1.3510     0.5270    -1.2100 N.am  1 <1>  -0.8490 
  5 C       -0.7770    -0.0860     0.4120 C.ar  1 <1>  -0.0090 
  6 C        2.0560    -0.6550    -0.7510 C.3   1 <1>   0.5760 
  7 C        2.3660     1.4440    -1.7240 C.3   1 <1>   0.1960 
  8 C       -0.6580    -0.8990     1.5340 C.ar  1 <1>  -0.1500 
  9 C       -1.8430    -0.3210    -0.4470 C.ar  1 <1>  -0.1500 
 10 N        3.3650    -0.1600    -0.3210 N.am  1 <1>  -0.6600 
 11 C        2.1770    -1.6920    -1.8990 C.3   1 <1>  -0.0800 
 12 C        3.6310     1.1530    -0.9320 C.3   1 <1>   0.1400 
 13 C       -1.5700    -1.9080     1.7890 C.ar  1 <1>  -0.1500 
 14 C       -2.7590    -1.3280    -0.1980 C.ar  1 <1>  -0.1500 
 15 C        3.9060    -0.5850     0.8600 C.2   1 <1>   0.5690 
 16 C        0.7910    -2.1620    -2.3830 C.3   1 <1>  -0.2400 
 17 C        2.9960    -2.9300    -1.4920 C.3   1 <1>  -0.2400 
 18 C       -2.6270    -2.1280     0.9230 C.ar  1 <1>  -0.1430 
 19 O        3.4970    -1.5820     1.4120 O.2   1 <1>  -0.5700 
 20 C        5.0420     0.1950     1.5420 C.3   1 <1>   0.1710 
 21 C       -3.6260    -3.2360     1.2000 C.3   1 <1>  -0.0970 
 22 N        6.1850     0.5790     0.6630 N.3   1 <1>  -0.8100 
 23 C        7.1640     1.3980     1.4000 C.3   1 <1>   0.1100 
 24 C        6.8580    -0.6160     0.1130 C.3   1 <1>   0.1100 
 25 C        8.3730     1.7410     0.5110 C.3   1 <1>   0.1200 
 26 C        8.0810    -0.2190    -0.7340 C.3   1 <1>   0.1200 
 27 O        8.9600     0.5740     0.0120 O.3   1 <1>  -0.5600 
 28 H        1.5470    -1.1230     0.0760 H     1 <1>   0.0800 
 29 H        2.0700     2.4760    -1.6380 H     1 <1>   0.0800 
 30 H        2.5430     1.2270    -2.7630 H     1 <1>   0.0800 
 31 H        0.1610    -0.7440     2.2180 H     1 <1>   0.1500 
 32 H       -1.9540     0.2950    -1.3250 H     1 <1>   0.1500 
 33 H        2.6790    -1.2230    -2.7260 H     1 <1>   0.0800 
 34 H        3.7730     1.9020    -0.1720 H     1 <1>   0.0800 
 35 H        4.4970     1.1140    -1.5690 H     1 <1>   0.0800 
 36 H       -1.4490    -2.5230     2.6640 H     1 <1>   0.1500 
 37 H       -3.5750    -1.4850    -0.8830 H     1 <1>   0.1500 
 38 H        0.2420    -2.6160    -1.5760 H     1 <1>   0.0800 
 39 H        0.8940    -2.8810    -3.1770 H     1 <1>   0.0800 
 40 H        0.2200    -1.3320    -2.7600 H     1 <1>   0.0800 
 41 H        2.5530    -3.4110    -0.6370 H     1 <1>   0.0800 
 42 H        4.0030    -2.6510    -1.2380 H     1 <1>   0.0800 
 43 H        3.0410    -3.6380    -2.3010 H     1 <1>   0.0800 
 44 H        5.4090    -0.4000     2.3600 H     1 <1>   0.0800 
 45 H        4.6080     1.0850     1.9590 H     1 <1>   0.0800 
 46 H       -3.2710    -4.1590     0.7770 H     1 <1>   0.0800 
 47 H       -4.5810    -3.0000     0.7680 H     1 <1>   0.0800 
 48 H       -3.7560    -3.3670     2.2600 H     1 <1>   0.0800 
 49 H        7.5110     0.8690     2.2710 H     1 <1>   0.0800 
 50 H        6.6950     2.3110     1.7240 H     1 <1>   0.0800 
 51 H        6.1710    -1.1670    -0.5060 H     1 <1>   0.0800 
 52 H        7.1810    -1.2620     0.9120 H     1 <1>   0.0800 
 53 H        9.1180     2.2660     1.0810 H     1 <1>   0.0800 
 54 H        8.0690     2.3560    -0.3180 H     1 <1>   0.0800 
 55 H        7.7730     0.3340    -1.6040 H     1 <1>   0.0800 
 56 H        8.6170    -1.0960    -1.0490 H     1 <1>   0.0800 
@<TRIPOS>BOND
  1   1   2  2   
  2   1   3  2   
  3   1   4  am  
  4   1   5  1   
  5   4   6  1   
  6   4   7  1   
  7   5   8  ar  
  8   5   9  ar  
  9   6  10  1   
 10   6  11  1   
 11   6  28  1   
 12   7  12  1   
 13   7  29  1   
 14   7  30  1   
 15   8  13  ar  
 16   8  31  1   
 17   9  14  ar  
 18   9  32  1   
 19  10  12  1   
 20  10  15  am  
 21  11  16  1   
 22  11  17  1   
 23  11  33  1   
 24  12  34  1   
 25  12  35  1   
 26  13  18  ar  
 27  13  36  1   
 28  14  18  ar  
 29  14  37  1   
 30  15  19  2   
 31  15  20  1   
 32  16  38  1   
 33  16  39  1   
 34  16  40  1   
 35  17  41  1   
 36  17  42  1   
 37  17  43  1   
 38  18  21  1   
 39  20  22  1   
 40  20  44  1   
 41  20  45  1   
 42  21  46  1   
 43  21  47  1   
 44  21  48  1   
 45  22  23  1   
 46  22  24  1   
 47  23  25  1   
 48  23  49  1   
 49  23  50  1   
 50  24  26  1   
 51  24  51  1   
 52  24  52  1   
 53  25  27  1   
 54  25  53  1   
 55  25  54  1   
 56  26  27  1   
 57  26  55  1   
 58  26  56  1   
@<TRIPOS>SUBSTRUCTURE
  1 ****   6 GROUP 4 **** **** 0

# MOE 2024.06 (io_trps.svl 2023.06)
