@<TRIPOS>MOLECULE
5-(1,3-Dioxo-octahydro-isoindol-2-ylmethyl)-furan-2-carboxylic acid methyl ester
38 40 1 0 0 
SMALL
USER_CHARGES


@<TRIPOS>ATOM
  1 O       -0.5150    -0.2450    -1.5180 O.2   1 <1>  -0.5700 
  2 C       -0.9030    -1.0970    -0.7610 C.2   1 <1>   0.5690 
  3 N       -0.2100    -2.2050    -0.4030 N.am  1 <1>  -0.4200 
  4 C       -2.2540    -1.0590    -0.0680 C.3   1 <1>  -0.0190 
  5 C       -0.9040    -2.9770     0.4670 C.2   1 <1>   0.5690 
  6 C        1.1490    -2.5190    -0.8840 C.3   1 <1>   0.3200 
  7 C       -2.2550    -2.3560     0.7790 C.3   1 <1>  -0.0190 
  8 C       -3.4310    -0.9740    -1.0590 C.3   1 <1>  -0.1600 
  9 O       -0.5180    -4.0140     0.9420 O.2   1 <1>  -0.5700 
 10 C        2.2130    -1.9250     0.0270 C.2   1 <1>  -0.0400 
 11 C       -3.4330    -3.2970     0.4570 C.3   1 <1>  -0.1600 
 12 C       -4.7680    -1.2470    -0.3530 C.3   1 <1>  -0.1600 
 13 O        3.4740    -2.1270    -0.2810 O.3   1 <1>  -0.2800 
 14 C        2.1260    -1.1870     1.1560 C.2   1 <1>  -0.1500 
 15 C       -4.7690    -2.5400     0.4890 C.3   1 <1>  -0.1600 
 16 C        4.2490    -1.5350     0.6260 C.2   1 <1>   0.0550 
 17 C        3.4410    -0.9340     1.5450 C.2   1 <1>  -0.1500 
 18 C        5.6880    -1.5890     0.5460 C.2   1 <1>   0.8050 
 19 O        6.4150    -1.0550     1.3630 O.2   1 <1>  -0.5700 
 20 O        6.2460    -2.2550    -0.4730 O.3   1 <1>  -0.4300 
 21 C        7.6480    -2.3550    -0.6240 C.3   1 <1>   0.0400 
 22 H       -2.2760    -0.2050     0.5860 H     1 <1>   0.0800 
 23 H        1.2760    -2.1270    -1.8780 H     1 <1>   0.0800 
 24 H        1.2750    -3.5870    -0.9240 H     1 <1>   0.0800 
 25 H       -2.2780    -2.1020     1.8240 H     1 <1>   0.0800 
 26 H       -3.2930    -1.6940    -1.8480 H     1 <1>   0.0800 
 27 H       -3.4490     0.0020    -1.5150 H     1 <1>   0.0800 
 28 H       -3.4530    -4.1070     1.1660 H     1 <1>   0.0800 
 29 H       -3.2940    -3.7290    -0.5200 H     1 <1>   0.0800 
 30 H       -5.5490    -1.3020    -1.0930 H     1 <1>   0.0800 
 31 H       -4.9980    -0.4140     0.2890 H     1 <1>   0.0800 
 32 H        1.2480    -0.8470     1.6750 H     1 <1>   0.1500 
 33 H       -5.0000    -2.2870     1.5110 H     1 <1>   0.0800 
 34 H       -5.5510    -3.1940     0.1410 H     1 <1>   0.0800 
 35 H        3.7450    -0.3700     2.4090 H     1 <1>   0.1500 
 36 H        7.8550    -2.9320    -1.5070 H     1 <1>   0.0800 
 37 H        8.0580    -2.8440     0.2430 H     1 <1>   0.0800 
 38 H        8.0590    -1.3650    -0.7230 H     1 <1>   0.0800 
@<TRIPOS>BOND
  1   1   2  2   
  2   2   3  am  
  3   2   4  1   
  4   3   5  am  
  5   3   6  1   
  6   4   7  1   
  7   4   8  1   
  8   4  22  1   
  9   5   7  1   
 10   5   9  2   
 11   6  10  1   
 12   6  23  1   
 13   6  24  1   
 14   7  11  1   
 15   7  25  1   
 16   8  12  1   
 17   8  26  1   
 18   8  27  1   
 19  10  13  1   
 20  10  14  2   
 21  11  15  1   
 22  11  28  1   
 23  11  29  1   
 24  12  15  1   
 25  12  30  1   
 26  12  31  1   
 27  13  16  1   
 28  14  17  1   
 29  14  32  1   
 30  15  33  1   
 31  15  34  1   
 32  16  17  2   
 33  16  18  1   
 34  17  35  1   
 35  18  19  2   
 36  18  20  1   
 37  20  21  1   
 38  21  36  1   
 39  21  37  1   
 40  21  38  1   
@<TRIPOS>SUBSTRUCTURE
  1 ****   6 GROUP 4 **** **** 0

# MOE 2024.06 (io_trps.svl 2023.06)
