@<TRIPOS>MOLECULE
Cyclohexanecarboxylic acid [3-(4-tert-butyl-phenyl)-[1,2,4]oxadiazol-5-ylmethyl]
52 54 1 0 0 
SMALL
USER_CHARGES


@<TRIPOS>ATOM
  1 O       -1.5850    -0.1790     0.1630 O.2   1 <1>  -0.5700 
  2 C       -2.5360    -0.6210     0.7570 C.2   1 <1>   0.5690 
  3 N       -2.3090    -1.3180     1.8980 N.am  1 <1>  -0.7300 
  4 C       -3.9480    -0.3940     0.2030 C.3   1 <1>  -0.0190 
  5 C       -3.2790    -2.0020     2.7950 C.3   1 <1>   0.3200 
  6 C       -4.2260    -1.3270    -0.9910 C.3   1 <1>  -0.1600 
  7 C       -4.1850     1.0730    -0.2060 C.3   1 <1>  -0.1600 
  8 C       -4.0370    -3.1230     2.0960 C.2   1 <1>   0.2980 
  9 C       -5.6510    -1.1360    -1.5270 C.3   1 <1>  -0.1600 
 10 C       -5.6080     1.2780    -0.7480 C.3   1 <1>  -0.1600 
 11 O       -3.3650    -4.1470     1.6420 O.3   1 <1>  -0.0190 
 12 N       -5.2900    -3.1600     1.8960 N.2   1 <1>  -0.5650 
 13 C       -5.9010     0.3270    -1.9170 C.3   1 <1>  -0.1600 
 14 N       -4.2680    -4.8970     1.0920 N.2   1 <1>  -0.4100 
 15 C       -5.4070    -4.3150     1.2320 C.2   1 <1>   0.4620 
 16 C       -6.6800    -4.8060     0.7320 C.ar  1 <1>   0.0540 
 17 C       -6.7810    -6.0350     0.0830 C.ar  1 <1>  -0.1500 
 18 C       -7.8590    -4.0750     0.8710 C.ar  1 <1>  -0.1500 
 19 C       -7.9890    -6.5040    -0.3990 C.ar  1 <1>  -0.1500 
 20 C       -9.0680    -4.5420     0.3890 C.ar  1 <1>  -0.1500 
 21 C       -9.1600    -5.7700    -0.2590 C.ar  1 <1>  -0.1430 
 22 C      -10.4860    -6.3350    -0.8150 C.3   1 <1>   0.1430 
 23 C      -10.7970    -7.6770    -0.1370 C.3   1 <1>  -0.2400 
 24 C      -11.6880    -5.4050    -0.5760 C.3   1 <1>  -0.2400 
 25 C      -10.3570    -6.5460    -2.3310 C.3   1 <1>  -0.2400 
 26 H       -1.3210    -1.4420     2.1270 H     1 <1>   0.3700 
 27 H       -4.6610    -0.6170     0.9720 H     1 <1>   0.0800 
 28 H       -3.9850    -1.2800     3.1670 H     1 <1>   0.0800 
 29 H       -2.7520    -2.4140     3.6370 H     1 <1>   0.0800 
 30 H       -4.0910    -2.3520    -0.6960 H     1 <1>   0.0800 
 31 H       -3.5170    -1.1190    -1.7750 H     1 <1>   0.0800 
 32 H       -3.4730     1.3520    -0.9650 H     1 <1>   0.0800 
 33 H       -4.0260     1.7160     0.6420 H     1 <1>   0.0800 
 34 H       -6.3590    -1.4340    -0.7730 H     1 <1>   0.0800 
 35 H       -5.8000    -1.7690    -2.3850 H     1 <1>   0.0800 
 36 H       -5.7250     2.2970    -1.0750 H     1 <1>   0.0800 
 37 H       -6.3190     1.1010     0.0410 H     1 <1>   0.0800 
 38 H       -6.9230     0.4470    -2.2320 H     1 <1>   0.0800 
 39 H       -5.2670     0.5840    -2.7480 H     1 <1>   0.0800 
 40 H       -5.8980    -6.6350    -0.0480 H     1 <1>   0.1500 
 41 H       -7.8310    -3.1190     1.3640 H     1 <1>   0.1500 
 42 H       -8.0040    -7.4590    -0.8920 H     1 <1>   0.1500 
 43 H       -9.9310    -3.9200     0.5340 H     1 <1>   0.1500 
 44 H      -10.8530    -7.5450     0.9290 H     1 <1>   0.0800 
 45 H      -10.0340    -8.4040    -0.3460 H     1 <1>   0.0800 
 46 H      -11.7360    -8.0700    -0.4840 H     1 <1>   0.0800 
 47 H      -11.5320    -4.4560    -1.0570 H     1 <1>   0.0800 
 48 H      -11.8380    -5.2450     0.4770 H     1 <1>   0.0800 
 49 H      -12.5870    -5.8380    -0.9780 H     1 <1>   0.0800 
 50 H      -10.1050    -5.6170    -2.8100 H     1 <1>   0.0800 
 51 H      -11.2820    -6.9050    -2.7450 H     1 <1>   0.0800 
 52 H       -9.5890    -7.2620    -2.5590 H     1 <1>   0.0800 
@<TRIPOS>BOND
  1   1   2  2   
  2   2   3  am  
  3   2   4  1   
  4   3   5  1   
  5   3  26  1   
  6   4   6  1   
  7   4   7  1   
  8   4  27  1   
  9   5   8  1   
 10   5  28  1   
 11   5  29  1   
 12   6   9  1   
 13   6  30  1   
 14   6  31  1   
 15   7  10  1   
 16   7  32  1   
 17   7  33  1   
 18   8  11  1   
 19   8  12  2   
 20   9  13  1   
 21   9  34  1   
 22   9  35  1   
 23  10  13  1   
 24  10  36  1   
 25  10  37  1   
 26  11  14  1   
 27  12  15  1   
 28  13  38  1   
 29  13  39  1   
 30  14  15  2   
 31  15  16  1   
 32  16  17  ar  
 33  16  18  ar  
 34  17  19  ar  
 35  17  40  1   
 36  18  20  ar  
 37  18  41  1   
 38  19  21  ar  
 39  19  42  1   
 40  20  21  ar  
 41  20  43  1   
 42  21  22  1   
 43  22  23  1   
 44  22  24  1   
 45  22  25  1   
 46  23  44  1   
 47  23  45  1   
 48  23  46  1   
 49  24  47  1   
 50  24  48  1   
 51  24  49  1   
 52  25  50  1   
 53  25  51  1   
 54  25  52  1   
@<TRIPOS>SUBSTRUCTURE
  1 ****  15 GROUP 4 **** **** 0

# MOE 2024.06 (io_trps.svl 2023.06)
