@<TRIPOS>MOLECULE
N-[1-(5-Mercapto-4-methyl-4H-[1,2,4]triazol-3-yl)-ethyl]-4-methyl-benzamide
35 36 1 0 0 
SMALL
USER_CHARGES


@<TRIPOS>ATOM
  1 S       -0.6530    -0.1520    -0.0330 S.3   1 <1>  -0.9360 
  2 C       -1.2630     1.3020    -0.4090 C.cat 1 <1>   0.7360 
  3 N       -0.9020     2.0160    -1.4510 N.pl3 1 <1>  -0.3930 
  4 N       -2.1930     1.9660     0.2500 N.pl3 1 <1>  -0.7640 
  5 N       -1.6100     3.1820    -1.5060 N.2   1 <1>  -0.2600 
  6 C       -2.3800     3.1260    -0.4730 C.2   1 <1>   0.4850 
  7 C       -2.8730     1.4840     1.4770 C.3   1 <1>   0.2740 
  8 C       -3.4080     4.2080    -0.0730 C.3   1 <1>   0.3880 
  9 N       -4.8010     3.7520    -0.3170 N.am  1 <1>  -0.7300 
 10 C       -3.2300     5.5330    -0.8210 C.3   1 <1>  -0.2400 
 11 C       -5.6690     3.3450     0.6520 C.2   1 <1>   0.5440 
 12 O       -5.2910     3.3790     1.8060 O.2   1 <1>  -0.5700 
 13 C       -7.0010     2.8800     0.3110 C.ar  1 <1>   0.0860 
 14 C       -8.0720     3.0790     1.1820 C.ar  1 <1>  -0.1500 
 15 C       -7.2680     2.2170    -0.8880 C.ar  1 <1>  -0.1500 
 16 C       -9.3490     2.6520     0.8680 C.ar  1 <1>  -0.1500 
 17 C       -8.5440     1.7890    -1.2070 C.ar  1 <1>  -0.1500 
 18 C       -9.5940     2.0040    -0.3310 C.ar  1 <1>  -0.1430 
 19 C      -10.9960     1.5370    -0.6780 C.3   1 <1>  -0.0970 
 20 H       -0.1860     1.6750    -2.0930 H     1 <1>   0.4500 
 21 H       -2.3100     0.6850     1.9290 H     1 <1>   0.0800 
 22 H       -3.8530     1.1170     1.2290 H     1 <1>   0.0800 
 23 H       -2.9620     2.2840     2.1910 H     1 <1>   0.0800 
 24 H       -3.2740     4.4040     0.9760 H     1 <1>   0.0800 
 25 H       -5.1030     3.7620    -1.2910 H     1 <1>   0.3700 
 26 H       -3.3580     5.3960    -1.8800 H     1 <1>   0.0800 
 27 H       -2.2430     5.9200    -0.6440 H     1 <1>   0.0800 
 28 H       -3.9430     6.2550    -0.4640 H     1 <1>   0.0800 
 29 H       -7.8950     3.5780     2.1200 H     1 <1>   0.1500 
 30 H       -6.4690     2.0230    -1.5810 H     1 <1>   0.1500 
 31 H      -10.1540     2.8260     1.5620 H     1 <1>   0.1500 
 32 H       -8.7190     1.2820    -2.1410 H     1 <1>   0.1500 
 33 H      -11.5230     2.3190    -1.1950 H     1 <1>   0.0800 
 34 H      -11.5400     1.2830     0.2140 H     1 <1>   0.0800 
 35 H      -10.9580     0.6680    -1.3100 H     1 <1>   0.0800 
@<TRIPOS>BOND
  1   1   2  1   
  2   2   3  ar  
  3   2   4  ar  
  4   3   5  1   
  5   3  20  1   
  6   4   6  1   
  7   4   7  1   
  8   5   6  2   
  9   6   8  1   
 10   7  21  1   
 11   7  22  1   
 12   7  23  1   
 13   8   9  1   
 14   8  10  1   
 15   8  24  1   
 16   9  11  am  
 17   9  25  1   
 18  10  26  1   
 19  10  27  1   
 20  10  28  1   
 21  11  12  2   
 22  11  13  1   
 23  13  14  ar  
 24  13  15  ar  
 25  14  16  ar  
 26  14  29  1   
 27  15  17  ar  
 28  15  30  1   
 29  16  18  ar  
 30  16  31  1   
 31  17  18  ar  
 32  17  32  1   
 33  18  19  1   
 34  19  33  1   
 35  19  34  1   
 36  19  35  1   
@<TRIPOS>SUBSTRUCTURE
  1 ****   9 GROUP 4 **** **** 0

# MOE 2024.06 (io_trps.svl 2023.06)
