@<TRIPOS>MOLECULE
1-(4-Methoxy-3-methyl-benzenesulfonyl)-piperidine-4-carboxylic acid (2-hydroxy-e
48 49 1 0 0 
SMALL
USER_CHARGES


@<TRIPOS>ATOM
  1 S       -0.1210    -0.1290     2.4140 S.o2  1 <1>   1.4470 
  2 O        0.2580    -1.2280     3.2750 O.2   1 <1>  -0.6500 
  3 O       -0.5640     1.1150     3.0110 O.2   1 <1>  -0.6500 
  4 N        1.2310     0.2530     1.4630 N.am  1 <1>  -0.8490 
  5 C       -1.3300    -0.7130     1.1950 C.ar  1 <1>  -0.0090 
  6 C        2.4370     0.3930     2.2820 C.3   1 <1>   0.1960 
  7 C        0.9990     1.4410     0.6350 C.3   1 <1>   0.1960 
  8 C       -2.6090    -0.1730     1.1270 C.ar  1 <1>  -0.1500 
  9 C       -1.0020    -1.7180     0.2930 C.ar  1 <1>  -0.1500 
 10 C        3.6660     0.5880     1.3890 C.3   1 <1>  -0.1600 
 11 C        2.1760     1.6580    -0.3190 C.3   1 <1>  -0.1600 
 12 C       -3.5350    -0.6070     0.1920 C.ar  1 <1>  -0.1430 
 13 C       -1.9120    -2.1650    -0.6470 C.ar  1 <1>  -0.1500 
 14 C        3.4990     1.7950     0.4530 C.3   1 <1>  -0.0190 
 15 C       -3.1870    -1.6110    -0.7060 C.ar  1 <1>   0.0830 
 16 C       -4.9230     0.0170     0.1560 C.3   1 <1>  -0.0970 
 17 C        4.6910     1.9450    -0.4910 C.2   1 <1>   0.5690 
 18 O       -4.1220    -2.0060    -1.6080 O.3   1 <1>  -0.3630 
 19 O        4.9080     1.0960    -1.3220 O.2   1 <1>  -0.5700 
 20 N        5.4920     3.0350    -0.3690 N.am  1 <1>  -0.7300 
 21 C       -3.8700    -3.0320    -2.5420 C.3   1 <1>   0.0400 
 22 C        6.6520     3.3180    -1.2530 C.3   1 <1>   0.1400 
 23 C        7.9040     2.6130    -0.7280 C.3   1 <1>   0.1200 
 24 O        8.9740     2.8940    -1.5660 O.3   1 <1>  -0.6800 
 25 H        2.5810    -0.4980     2.8720 H     1 <1>   0.0800 
 26 H        2.3260     1.2270     2.9560 H     1 <1>   0.0800 
 27 H        0.8700     2.3090     1.2620 H     1 <1>   0.0800 
 28 H        0.1010     1.3110     0.0530 H     1 <1>   0.0800 
 29 H       -2.8790     0.6040     1.8230 H     1 <1>   0.1500 
 30 H       -0.0160    -2.1510     0.3310 H     1 <1>   0.1500 
 31 H        3.8140    -0.3060     0.8070 H     1 <1>   0.0800 
 32 H        4.5370     0.7220     2.0060 H     1 <1>   0.0800 
 33 H        2.0040     2.5430    -0.9050 H     1 <1>   0.0800 
 34 H        2.2310     0.8230    -0.9960 H     1 <1>   0.0800 
 35 H       -1.6090    -2.9430    -1.3220 H     1 <1>   0.1500 
 36 H        3.4380     2.6810     1.0600 H     1 <1>   0.0800 
 37 H       -5.0320     0.7740     0.9110 H     1 <1>   0.0800 
 38 H       -5.6660    -0.7430     0.3210 H     1 <1>   0.0800 
 39 H       -5.0960     0.4630    -0.8070 H     1 <1>   0.0800 
 40 H        5.3140     3.7240     0.3630 H     1 <1>   0.3700 
 41 H       -4.7550    -3.1670    -3.1360 H     1 <1>   0.0800 
 42 H       -3.6440    -3.9390    -2.0100 H     1 <1>   0.0800 
 43 H       -3.0490    -2.7370    -3.1710 H     1 <1>   0.0800 
 44 H        6.8190     4.3810    -1.2900 H     1 <1>   0.0800 
 45 H        6.4310     2.9640    -2.2460 H     1 <1>   0.0800 
 46 H        7.7630     1.5460    -0.7060 H     1 <1>   0.0800 
 47 H        8.1550     2.9700     0.2550 H     1 <1>   0.0800 
 48 H        8.8690     2.4300    -2.4210 H     1 <1>   0.4000 
@<TRIPOS>BOND
  1   1   2  2   
  2   1   3  2   
  3   1   4  am  
  4   1   5  1   
  5   4   6  1   
  6   4   7  1   
  7   5   8  ar  
  8   5   9  ar  
  9   6  10  1   
 10   6  25  1   
 11   6  26  1   
 12   7  11  1   
 13   7  27  1   
 14   7  28  1   
 15   8  12  ar  
 16   8  29  1   
 17   9  13  ar  
 18   9  30  1   
 19  10  14  1   
 20  10  31  1   
 21  10  32  1   
 22  11  14  1   
 23  11  33  1   
 24  11  34  1   
 25  12  15  ar  
 26  12  16  1   
 27  13  15  ar  
 28  13  35  1   
 29  14  17  1   
 30  14  36  1   
 31  15  18  1   
 32  16  37  1   
 33  16  38  1   
 34  16  39  1   
 35  17  19  2   
 36  17  20  am  
 37  18  21  1   
 38  20  22  1   
 39  20  40  1   
 40  21  41  1   
 41  21  42  1   
 42  21  43  1   
 43  22  23  1   
 44  22  44  1   
 45  22  45  1   
 46  23  24  1   
 47  23  46  1   
 48  23  47  1   
 49  24  48  1   
@<TRIPOS>SUBSTRUCTURE
  1 ****   7 GROUP 4 **** **** 0

# MOE 2024.06 (io_trps.svl 2023.06)
