@<TRIPOS>MOLECULE
NONAME
56 59 1 0 0 
SMALL
USER_CHARGES


@<TRIPOS>ATOM
  1 O       -1.9110    -0.5470    -1.9950 O.2   1 <1>  -0.5700 
  2 C       -2.3770     0.1990    -1.1710 C.2   1 <1>   0.4950 
  3 C       -3.1970    -0.2070    -0.0930 C.2   1 <1>  -0.1240 
  4 C       -2.0940     1.6920    -1.2730 C.3   1 <1>  -0.0990 
  5 C       -3.6440     0.6050     0.8820 C.2   1 <1>  -0.0290 
  6 C       -3.7040    -1.6320     0.1420 C.3   1 <1>   0.4810 
  7 C       -2.0540     2.4100     0.1050 C.3   1 <1>   0.0000 
  8 N       -4.4080    -0.0690     1.7950 N.am  1 <1>  -0.5390 
  9 C       -3.3130     2.0840     0.9540 C.3   1 <1>  -0.0220 
 10 C       -2.5780    -2.6690     0.2630 C.2   1 <1>  -0.1240 
 11 C       -4.7270    -1.9640    -0.9500 C.ar  1 <1>  -0.1440 
 12 C       -4.4520    -1.3960     1.4750 C.2   1 <1>   0.5690 
 13 C       -1.9680     3.9280    -0.1170 C.3   1 <1>  -0.2400 
 14 C       -0.7890     1.9700     0.8680 C.3   1 <1>  -0.2400 
 15 C       -2.6160    -3.7750    -0.5440 C.2   1 <1>   0.1770 
 16 C       -1.5700    -2.3820     1.2290 C.2   1 <1>   0.7060 
 17 C       -4.5920    -3.1340    -1.6810 C.ar  1 <1>   0.0830 
 18 C       -5.8000    -1.1240    -1.2310 C.ar  1 <1>  -0.1500 
 19 O       -5.0010    -2.2330     2.1500 O.2   1 <1>  -0.5700 
 20 O       -3.5750    -3.9890    -1.4490 O.3   1 <1>  -0.1590 
 21 N       -1.7070    -4.7910    -0.5420 N.pl3 1 <1>  -0.9000 
 22 O       -1.6210    -1.4340     1.9940 O.2   1 <1>  -0.5700 
 23 O       -0.4920    -3.1830     1.3040 O.3   1 <1>  -0.4300 
 24 C       -5.5010    -3.4600    -2.6750 C.ar  1 <1>  -0.1500 
 25 C       -6.7100    -1.4480    -2.2240 C.ar  1 <1>  -0.1500 
 26 C        0.6350    -3.0620     2.1480 C.3   1 <1>   0.2800 
 27 C       -6.5610    -2.6170    -2.9480 C.ar  1 <1>  -0.1500 
 28 C        1.5370    -4.2380     1.7700 C.3   1 <1>  -0.2400 
 29 C        0.2170    -3.1980     3.6160 C.3   1 <1>  -0.2400 
 30 C        1.3740    -1.7490     1.8630 C.3   1 <1>  -0.2400 
 31 H       -2.8660     2.1220    -1.8840 H     1 <1>   0.0800 
 32 H       -1.1600     1.8320    -1.7880 H     1 <1>   0.0800 
 33 H       -4.7850     0.2710     2.6820 H     1 <1>   0.3700 
 34 H       -3.1480     2.3700     1.9780 H     1 <1>   0.0800 
 35 H       -4.1620     2.6350     0.5890 H     1 <1>   0.0800 
 36 H       -2.8270     4.2850    -0.6570 H     1 <1>   0.0800 
 37 H       -1.0870     4.1780    -0.6830 H     1 <1>   0.0800 
 38 H       -1.9210     4.4470     0.8250 H     1 <1>   0.0800 
 39 H       -0.7980     0.9140     1.0650 H     1 <1>   0.0800 
 40 H       -0.7170     2.4810     1.8120 H     1 <1>   0.0800 
 41 H        0.0960     2.1950     0.2980 H     1 <1>   0.0800 
 42 H       -5.9430    -0.2090    -0.6820 H     1 <1>   0.1500 
 43 H       -0.8630    -4.7510     0.0430 H     1 <1>   0.4000 
 44 H       -1.7560    -5.5650    -1.2100 H     1 <1>   0.4000 
 45 H       -5.3720    -4.3720    -3.2290 H     1 <1>   0.1500 
 46 H       -7.5360    -0.7900    -2.4320 H     1 <1>   0.1500 
 47 H       -7.2670    -2.8690    -3.7190 H     1 <1>   0.1500 
 48 H        1.0280    -5.1690     1.9410 H     1 <1>   0.0800 
 49 H        2.4320    -4.2280     2.3650 H     1 <1>   0.0800 
 50 H        1.8190    -4.1740     0.7340 H     1 <1>   0.0800 
 51 H       -0.3580    -2.3500     3.9390 H     1 <1>   0.0800 
 52 H        1.0900    -3.2530     4.2420 H     1 <1>   0.0800 
 53 H       -0.3620    -4.0930     3.7590 H     1 <1>   0.0800 
 54 H        0.8060    -0.9010     2.1980 H     1 <1>   0.0800 
 55 H        1.5710    -1.6510     0.8100 H     1 <1>   0.0800 
 56 H        2.3120    -1.7350     2.3880 H     1 <1>   0.0800 
@<TRIPOS>BOND
  1   1   2  2   
  2   2   3  1   
  3   2   4  1   
  4   3   5  2   
  5   3   6  1   
  6   4   7  1   
  7   4  31  1   
  8   4  32  1   
  9   5   8  1   
 10   5   9  1   
 11   6  10  1   
 12   6  11  1   
 13   6  12  1   
 14   7   9  1   
 15   7  13  1   
 16   7  14  1   
 17   8  12  am  
 18   8  33  1   
 19   9  34  1   
 20   9  35  1   
 21  10  15  2   
 22  10  16  1   
 23  11  17  ar  
 24  11  18  ar  
 25  12  19  2   
 26  13  36  1   
 27  13  37  1   
 28  13  38  1   
 29  14  39  1   
 30  14  40  1   
 31  14  41  1   
 32  15  20  1   
 33  15  21  1   
 34  16  22  2   
 35  16  23  1   
 36  17  20  1   
 37  17  24  ar  
 38  18  25  ar  
 39  18  42  1   
 40  21  43  1   
 41  21  44  1   
 42  23  26  1   
 43  24  27  ar  
 44  24  45  1   
 45  25  27  ar  
 46  25  46  1   
 47  26  28  1   
 48  26  29  1   
 49  26  30  1   
 50  27  47  1   
 51  28  48  1   
 52  28  49  1   
 53  28  50  1   
 54  29  51  1   
 55  29  52  1   
 56  29  53  1   
 57  30  54  1   
 58  30  55  1   
 59  30  56  1   
@<TRIPOS>SUBSTRUCTURE
  1 ****   6 GROUP 4 **** **** 0

# MOE 2024.06 (io_trps.svl 2023.06)
