@<TRIPOS>MOLECULE
2-(2-Hydroxy-ethylamino)-1-(5-thiophen-2-yl-3-p-tolyl-4,5-dihydro-pyrazol-1-yl)-
45 47 1 0 0 
SMALL
USER_CHARGES


@<TRIPOS>ATOM
  1 S        0.2670     0.3870     0.7730 S.3   1 <1>  -0.0800 
  2 C       -0.6130    -1.1360     0.7150 C.2   1 <1>  -0.1400 
  3 C        1.5180    -0.2380    -0.2870 C.2   1 <1>  -0.1100 
  4 C        0.0440    -2.0200    -0.0620 C.2   1 <1>  -0.1500 
  5 C       -1.9080    -1.2050     1.5210 C.3   1 <1>   0.4000 
  6 C        1.2520    -1.5100    -0.6330 C.2   1 <1>  -0.1500 
  7 N       -2.5600    -2.5280     1.4410 N.am  1 <1>  -0.2980 
  8 C       -2.9730    -0.2850     0.9310 C.3   1 <1>  -0.0990 
  9 N       -3.7960    -2.4540     0.8430 N.2   1 <1>  -0.5120 
 10 C       -1.9840    -3.6410     2.0270 C.2   1 <1>   0.5690 
 11 C       -4.0720    -1.2480     0.5370 C.2   1 <1>   0.3030 
 12 O       -1.0180    -3.5530     2.7530 O.2   1 <1>  -0.5700 
 13 C       -2.6170    -5.0250     1.7990 C.3   1 <1>   0.1710 
 14 C       -5.2830    -0.7810    -0.1030 C.ar  1 <1>   0.0860 
 15 N       -2.1710    -5.7660     0.5850 N.3   1 <1>  -0.9000 
 16 C       -6.3120    -1.6740    -0.4110 C.ar  1 <1>  -0.1500 
 17 C       -5.4950     0.5600    -0.4410 C.ar  1 <1>  -0.1500 
 18 C       -2.6270    -5.1320    -0.6580 C.3   1 <1>   0.1100 
 19 C       -7.4820    -1.2590    -1.0180 C.ar  1 <1>  -0.1500 
 20 C       -6.6630     0.9800    -1.0490 C.ar  1 <1>  -0.1500 
 21 C       -2.1320    -5.9320    -1.8650 C.3   1 <1>   0.1200 
 22 C       -7.6660     0.0730    -1.3430 C.ar  1 <1>  -0.1430 
 23 O       -2.6050    -5.3500    -3.0340 O.3   1 <1>  -0.6800 
 24 C       -8.9520     0.5300    -2.0080 C.3   1 <1>  -0.0970 
 25 H        2.3290     0.4210    -0.5400 H     1 <1>   0.1500 
 26 H       -0.2670    -3.0320    -0.2610 H     1 <1>   0.1500 
 27 H       -1.7180    -0.9660     2.5520 H     1 <1>   0.0800 
 28 H        1.8590    -2.1260    -1.2730 H     1 <1>   0.1500 
 29 H       -2.6040     0.2420     0.0700 H     1 <1>   0.0800 
 30 H       -3.3160     0.4120     1.6720 H     1 <1>   0.0800 
 31 H       -3.6870    -4.9160     1.7800 H     1 <1>   0.0800 
 32 H       -2.3740    -5.6220     2.6600 H     1 <1>   0.0800 
 33 H       -2.5570    -6.7170     0.6310 H     1 <1>   0.3600 
 34 H       -6.1910    -2.7150    -0.1670 H     1 <1>   0.1500 
 35 H       -4.7430     1.2980    -0.2330 H     1 <1>   0.1500 
 36 H       -2.2310    -4.1340    -0.7230 H     1 <1>   0.0800 
 37 H       -3.7020    -5.0830    -0.6630 H     1 <1>   0.0800 
 38 H       -8.2520    -1.9790    -1.2370 H     1 <1>   0.1500 
 39 H       -6.7920     2.0200    -1.2950 H     1 <1>   0.1500 
 40 H       -2.4880    -6.9470    -1.8280 H     1 <1>   0.0800 
 41 H       -1.0570    -5.9230    -1.9030 H     1 <1>   0.0800 
 42 H       -3.5810    -5.3360    -3.0450 H     1 <1>   0.4000 
 43 H       -9.3310    -0.2370    -2.6600 H     1 <1>   0.0800 
 44 H       -8.7820     1.4160    -2.5930 H     1 <1>   0.0800 
 45 H       -9.6930     0.7460    -1.2590 H     1 <1>   0.0800 
@<TRIPOS>BOND
  1   1   2  1   
  2   1   3  1   
  3   2   4  2   
  4   2   5  1   
  5   3   6  2   
  6   3  25  1   
  7   4   6  1   
  8   4  26  1   
  9   5   7  1   
 10   5   8  1   
 11   5  27  1   
 12   6  28  1   
 13   7   9  1   
 14   7  10  am  
 15   8  11  1   
 16   8  29  1   
 17   8  30  1   
 18   9  11  2   
 19  10  12  2   
 20  10  13  1   
 21  11  14  1   
 22  13  15  1   
 23  13  31  1   
 24  13  32  1   
 25  14  16  ar  
 26  14  17  ar  
 27  15  18  1   
 28  15  33  1   
 29  16  19  ar  
 30  16  34  1   
 31  17  20  ar  
 32  17  35  1   
 33  18  21  1   
 34  18  36  1   
 35  18  37  1   
 36  19  22  ar  
 37  19  38  1   
 38  20  22  ar  
 39  20  39  1   
 40  21  23  1   
 41  21  40  1   
 42  21  41  1   
 43  22  24  1   
 44  23  42  1   
 45  24  43  1   
 46  24  44  1   
 47  24  45  1   
@<TRIPOS>SUBSTRUCTURE
  1 ****   9 GROUP 4 **** **** 0

# MOE 2024.06 (io_trps.svl 2023.06)
