@<TRIPOS>MOLECULE
1-(4-Methoxy-3-methyl-benzenesulfonyl)-piperidine-4-carboxylic acid (4-chloro-2-
54 56 1 0 0 
SMALL
USER_CHARGES


@<TRIPOS>ATOM
  1 CL      -1.0480    -0.8850     3.4970 Cl    1 <1>  -0.1770 
  2 C       -2.4530    -1.4360     2.6170 C.ar  1 <1>   0.1770 
  3 C       -2.4450    -1.4020     1.2360 C.ar  1 <1>  -0.1500 
  4 C       -3.5520    -1.8960     3.3120 C.ar  1 <1>  -0.1500 
  5 C       -3.5540    -1.8370     0.5270 C.ar  1 <1>  -0.1440 
  6 C       -4.6600    -2.3280     2.6070 C.ar  1 <1>  -0.1500 
  7 C       -4.6790    -2.3100     1.2130 C.ar  1 <1>   0.1170 
  8 C       -3.5100    -1.7930    -0.9970 C.3   1 <1>  -0.0960 
  9 N       -5.8040    -2.7330     0.4840 N.am  1 <1>  -0.5470 
 10 C       -6.8080    -3.6070     0.7990 C.2   1 <1>   0.5690 
 11 O       -6.8630    -4.2100     1.8430 O.2   1 <1>  -0.5700 
 12 C       -7.8990    -3.8380    -0.2470 C.3   1 <1>  -0.0190 
 13 C       -9.3120    -3.7340     0.3520 C.3   1 <1>  -0.1600 
 14 C       -7.7390    -5.2070    -0.9280 C.3   1 <1>  -0.1600 
 15 C      -10.3810    -4.0300    -0.7010 C.3   1 <1>   0.1960 
 16 C       -8.8650    -5.4700    -1.9320 C.3   1 <1>   0.1960 
 17 N      -10.1700    -5.3620    -1.2770 N.am  1 <1>  -0.8490 
 18 S      -11.4250    -5.8030    -2.3310 S.o2  1 <1>   1.4470 
 19 O      -11.0540    -7.0670    -2.9280 O.2   1 <1>  -0.6500 
 20 O      -11.6530    -4.6570    -3.1860 O.2   1 <1>  -0.6500 
 21 C      -12.8310    -6.0550    -1.2140 C.ar  1 <1>  -0.0090 
 22 C      -14.0420    -5.4040    -1.4170 C.ar  1 <1>  -0.1500 
 23 C      -12.7280    -6.9060    -0.1210 C.ar  1 <1>  -0.1500 
 24 C      -15.1180    -5.5830    -0.5620 C.ar  1 <1>  -0.1430 
 25 C      -13.7900    -7.0980     0.7440 C.ar  1 <1>  -0.1500 
 26 C      -14.9940    -6.4360     0.5310 C.ar  1 <1>   0.0830 
 27 C      -16.4240    -4.8470    -0.8260 C.3   1 <1>  -0.0970 
 28 O      -16.0710    -6.5810     1.3450 O.3   1 <1>  -0.3620 
 29 C      -16.0480    -7.4390     2.4640 C.3   1 <1>   0.0400 
 30 H       -1.5680    -1.0360     0.7330 H     1 <1>   0.1500 
 31 H       -3.5390    -1.9140     4.3870 H     1 <1>   0.1500 
 32 H       -5.5160    -2.6800     3.1530 H     1 <1>   0.1500 
 33 H       -2.5380    -1.4910    -1.3440 H     1 <1>   0.0800 
 34 H       -4.2330    -1.0890    -1.3680 H     1 <1>   0.0800 
 35 H       -3.7190    -2.7670    -1.4020 H     1 <1>   0.0800 
 36 H       -5.8350    -2.3620    -0.4620 H     1 <1>   0.3700 
 37 H       -7.8090    -3.0780    -1.0020 H     1 <1>   0.0800 
 38 H       -9.4660    -2.7470     0.7510 H     1 <1>   0.0800 
 39 H       -9.4220    -4.4350     1.1620 H     1 <1>   0.0800 
 40 H       -7.7540    -5.9860    -0.1830 H     1 <1>   0.0800 
 41 H       -6.7920    -5.2580    -1.4330 H     1 <1>   0.0800 
 42 H      -10.3490    -3.2830    -1.4780 H     1 <1>   0.0800 
 43 H      -11.3500    -3.9850    -0.2330 H     1 <1>   0.0800 
 44 H       -8.7390    -6.4640    -2.3320 H     1 <1>   0.0800 
 45 H       -8.8090    -4.7710    -2.7510 H     1 <1>   0.0800 
 46 H      -14.1390    -4.7450    -2.2640 H     1 <1>   0.1500 
 47 H      -11.7980    -7.4220     0.0530 H     1 <1>   0.1500 
 48 H      -13.6580    -7.7650     1.5750 H     1 <1>   0.1500 
 49 H      -16.3570    -4.2320    -1.7040 H     1 <1>   0.0800 
 50 H      -16.6660    -4.2220     0.0150 H     1 <1>   0.0800 
 51 H      -17.2190    -5.5580    -0.9650 H     1 <1>   0.0800 
 52 H      -17.0090    -7.3890     2.9430 H     1 <1>   0.0800 
 53 H      -15.2830    -7.1050     3.1440 H     1 <1>   0.0800 
 54 H      -15.8580    -8.4430     2.1300 H     1 <1>   0.0800 
@<TRIPOS>BOND
  1   1   2  1   
  2   2   3  ar  
  3   2   4  ar  
  4   3   5  ar  
  5   3  30  1   
  6   4   6  ar  
  7   4  31  1   
  8   5   7  ar  
  9   5   8  1   
 10   6   7  ar  
 11   6  32  1   
 12   7   9  1   
 13   8  33  1   
 14   8  34  1   
 15   8  35  1   
 16   9  10  am  
 17   9  36  1   
 18  10  11  2   
 19  10  12  1   
 20  12  13  1   
 21  12  14  1   
 22  12  37  1   
 23  13  15  1   
 24  13  38  1   
 25  13  39  1   
 26  14  16  1   
 27  14  40  1   
 28  14  41  1   
 29  15  17  1   
 30  15  42  1   
 31  15  43  1   
 32  16  17  1   
 33  16  44  1   
 34  16  45  1   
 35  17  18  am  
 36  18  19  2   
 37  18  20  2   
 38  18  21  1   
 39  21  22  ar  
 40  21  23  ar  
 41  22  24  ar  
 42  22  46  1   
 43  23  25  ar  
 44  23  47  1   
 45  24  26  ar  
 46  24  27  1   
 47  25  26  ar  
 48  25  48  1   
 49  26  28  1   
 50  27  49  1   
 51  27  50  1   
 52  27  51  1   
 53  28  29  1   
 54  29  52  1   
 55  29  53  1   
 56  29  54  1   
@<TRIPOS>SUBSTRUCTURE
  1 ****  13 GROUP 4 **** **** 0

# MOE 2024.06 (io_trps.svl 2023.06)
