@<TRIPOS>MOLECULE
4-(4-Methoxy-phenoxy)-N-[5-(tetrahydro-furan-2-yl)-[1,3,4]thiadiazol-2-yl]-butyr
46 48 1 0 0 
SMALL
USER_CHARGES


@<TRIPOS>ATOM
  1 S       -0.3570    -0.6820     0.0110 S.3   1 <1>  -0.0800 
  2 C        0.7470     0.6200    -0.3100 C.2   1 <1>   0.4420 
  3 C        0.9210    -1.7750    -0.4070 C.2   1 <1>   0.1980 
  4 N        1.9030     0.1940    -0.6610 N.2   1 <1>  -0.3380 
  5 N        0.3890     1.9440    -0.1640 N.am  1 <1>  -0.4940 
  6 N        1.9960    -1.1680    -0.7190 N.2   1 <1>  -0.3380 
  7 C        0.6570    -3.2750    -0.3540 C.3   1 <1>   0.3800 
  8 C       -0.7660     2.6340     0.0300 C.2   1 <1>   0.5690 
  9 O       -0.6060    -3.5910    -0.8540 O.3   1 <1>  -0.5600 
 10 C        0.6530    -3.8540     1.0550 C.3   1 <1>  -0.1600 
 11 O       -0.6930     3.8210     0.2080 O.2   1 <1>  -0.5700 
 12 C       -2.1340     1.9580     0.0110 C.3   1 <1>  -0.0990 
 13 C       -1.0090    -4.8370    -0.3840 C.3   1 <1>   0.1200 
 14 C       -0.2710    -5.0570     0.9360 C.3   1 <1>  -0.1600 
 15 C       -3.3240     2.9360    -0.0310 C.3   1 <1>  -0.1600 
 16 C       -4.6580     2.1900    -0.0750 C.3   1 <1>   0.1200 
 17 O       -5.6930     3.1440    -0.1150 O.3   1 <1>  -0.3630 
 18 C       -6.9960     2.7610    -0.1600 C.ar  1 <1>   0.0830 
 19 C       -7.9400     3.7760    -0.1910 C.ar  1 <1>  -0.1500 
 20 C       -7.4170     1.4340    -0.1760 C.ar  1 <1>  -0.1500 
 21 C       -9.2920     3.4820    -0.2380 C.ar  1 <1>  -0.1500 
 22 C       -8.7690     1.1410    -0.2230 C.ar  1 <1>  -0.1500 
 23 C       -9.7130     2.1550    -0.2540 C.ar  1 <1>   0.0830 
 24 O      -11.0170     1.7750    -0.2990 O.3   1 <1>  -0.3620 
 25 C      -12.0510     2.7320    -0.3340 C.3   1 <1>   0.0400 
 26 H        1.1870     2.5740    -0.2260 H     1 <1>   0.3700 
 27 H        1.3810    -3.7900    -0.9630 H     1 <1>   0.0800 
 28 H        0.2400    -3.1360     1.7420 H     1 <1>   0.0800 
 29 H        1.6450    -4.1190     1.3740 H     1 <1>   0.0800 
 30 H       -2.2190     1.3480     0.8910 H     1 <1>   0.0800 
 31 H       -2.1860     1.3250    -0.8560 H     1 <1>   0.0800 
 32 H       -0.7330    -5.5780    -1.1150 H     1 <1>   0.0800 
 33 H       -2.0780    -4.8260    -0.2570 H     1 <1>   0.0800 
 34 H       -0.9610    -5.1090     1.7600 H     1 <1>   0.0800 
 35 H        0.2870    -5.9760     0.8910 H     1 <1>   0.0800 
 36 H       -3.2400     3.5620    -0.9030 H     1 <1>   0.0800 
 37 H       -3.3000     3.5650     0.8430 H     1 <1>   0.0800 
 38 H       -4.7870     1.5870     0.8070 H     1 <1>   0.0800 
 39 H       -4.7250     1.5810    -0.9600 H     1 <1>   0.0800 
 40 H       -7.6050     4.7970    -0.1780 H     1 <1>   0.1500 
 41 H       -6.7170     0.6220    -0.1530 H     1 <1>   0.1500 
 42 H       -9.9930     4.2930    -0.2610 H     1 <1>   0.1500 
 43 H       -9.1050     0.1190    -0.2360 H     1 <1>   0.1500 
 44 H      -12.9900     2.2080    -0.3670 H     1 <1>   0.0800 
 45 H      -11.9390     3.3360    -1.2170 H     1 <1>   0.0800 
 46 H      -12.0000     3.3340     0.5560 H     1 <1>   0.0800 
@<TRIPOS>BOND
  1   1   2  1   
  2   1   3  1   
  3   2   4  2   
  4   2   5  1   
  5   3   6  2   
  6   3   7  1   
  7   4   6  1   
  8   5   8  am  
  9   5  26  1   
 10   7   9  1   
 11   7  10  1   
 12   7  27  1   
 13   8  11  2   
 14   8  12  1   
 15   9  13  1   
 16  10  14  1   
 17  10  28  1   
 18  10  29  1   
 19  12  15  1   
 20  12  30  1   
 21  12  31  1   
 22  13  14  1   
 23  13  32  1   
 24  13  33  1   
 25  14  34  1   
 26  14  35  1   
 27  15  16  1   
 28  15  36  1   
 29  15  37  1   
 30  16  17  1   
 31  16  38  1   
 32  16  39  1   
 33  17  18  1   
 34  18  19  ar  
 35  18  20  ar  
 36  19  21  ar  
 37  19  40  1   
 38  20  22  ar  
 39  20  41  1   
 40  21  23  ar  
 41  21  42  1   
 42  22  23  ar  
 43  22  43  1   
 44  23  24  1   
 45  24  25  1   
 46  25  44  1   
 47  25  45  1   
 48  25  46  1   
@<TRIPOS>SUBSTRUCTURE
  1 ****  12 GROUP 4 **** **** 0

# MOE 2024.06 (io_trps.svl 2023.06)
