@<TRIPOS>MOLECULE
8-(4-Ethyl-phenyl)-1-methyl-5,6,7,8-tetrahydro-1H-1,3,4b,8,9-pentaaza-fluorene-2
44 47 1 0 0 
SMALL
USER_CHARGES


@<TRIPOS>ATOM
  1 O        0.6880     0.2110    -0.8530 O.2   1 <1>  -0.5750 
  2 C        1.7330     0.7730    -0.6250 C.2   1 <1>   0.6860 
  3 N        2.9440     0.0950    -0.5770 N.am  1 <1>  -0.4420 
  4 N        1.7110     2.1210    -0.4090 N.am  1 <1>  -0.4960 
  5 C        4.0850     0.8350    -0.3040 C.2   1 <1>   0.4200 
  6 C        3.0190    -1.3770    -0.8070 C.3   1 <1>   0.0510 
  7 C        2.8240     2.8660    -0.1390 C.2   1 <1>   0.6990 
  8 N        5.3690     0.3880    -0.2040 N.pl3 1 <1>  -0.7040 
  9 C        4.0760     2.1720    -0.0870 C.2   1 <1>   0.2690 
 10 O        2.7110     4.0620     0.0430 O.2   1 <1>  -0.5750 
 11 C        6.1440     1.4350     0.0730 C.cat 1 <1>   1.0680 
 12 N        5.4080     2.5380     0.1500 N.pl3 1 <1>  -0.7680 
 13 N        7.4750     1.4230     0.2590 N.pl3 1 <1>  -0.5810 
 14 C        5.9390     3.8840     0.4430 C.3   1 <1>   0.3470 
 15 C        8.2340     0.2540     0.1620 C.ar  1 <1>   0.3040 
 16 C        8.1770     2.6750     0.6500 C.3   1 <1>   0.1590 
 17 C        7.4340     3.9040     0.1030 C.3   1 <1>  -0.1680 
 18 C        8.5990    -0.2410    -1.0820 C.ar  1 <1>  -0.1580 
 19 C        8.6020    -0.4420     1.3050 C.ar  1 <1>  -0.1580 
 20 C        9.3080    -1.4240    -1.1820 C.ar  1 <1>  -0.1580 
 21 C        9.3110    -1.6250     1.2040 C.ar  1 <1>  -0.1580 
 22 C        9.6620    -2.1240    -0.0400 C.ar  1 <1>  -0.1520 
 23 C       10.4420    -3.4250    -0.1510 C.3   1 <1>  -0.0260 
 24 C       11.9470    -3.1530    -0.1320 C.3   1 <1>  -0.2480 
 25 H        0.8080     2.5880    -0.4510 H     1 <1>   0.3630 
 26 H        2.0480    -1.7790    -1.0440 H     1 <1>   0.0710 
 27 H        3.3820    -1.8670     0.0800 H     1 <1>   0.0710 
 28 H        3.6810    -1.5860    -1.6290 H     1 <1>   0.0710 
 29 H        5.7150    -0.5630    -0.3070 H     1 <1>   0.4440 
 30 H        5.7910     4.1030     1.4880 H     1 <1>   0.0710 
 31 H        5.4160     4.6260    -0.1390 H     1 <1>   0.0710 
 32 H        9.1840     2.6620     0.2660 H     1 <1>   0.0710 
 33 H        8.2290     2.7260     1.7260 H     1 <1>   0.0710 
 34 H        7.8770     4.7990     0.5040 H     1 <1>   0.0710 
 35 H        7.5540     3.9450    -0.9650 H     1 <1>   0.0710 
 36 H        8.3380     0.2960    -1.9750 H     1 <1>   0.1420 
 37 H        8.3380    -0.0650     2.2760 H     1 <1>   0.1420 
 38 H        9.5920    -1.8020    -2.1510 H     1 <1>   0.1420 
 39 H        9.5970    -2.1600     2.0950 H     1 <1>   0.1420 
 40 H       10.1810    -3.9320    -1.0640 H     1 <1>   0.0710 
 41 H       10.1850    -4.0760     0.6670 H     1 <1>   0.0710 
 42 H       12.2210    -2.5200    -0.9570 H     1 <1>   0.0710 
 43 H       12.4910    -4.0770    -0.2100 H     1 <1>   0.0710 
 44 H       12.2260    -2.6640     0.7850 H     1 <1>   0.0710 
@<TRIPOS>BOND
  1   1   2  2   
  2   2   3  am  
  3   2   4  am  
  4   3   5  1   
  5   3   6  1   
  6   4   7  am  
  7   4  25  1   
  8   5   8  1   
  9   5   9  2   
 10   6  26  1   
 11   6  27  1   
 12   6  28  1   
 13   7   9  1   
 14   7  10  2   
 15   8  11  ar  
 16   8  29  1   
 17   9  12  1   
 18  11  12  ar  
 19  11  13  ar  
 20  12  14  1   
 21  13  15  1   
 22  13  16  1   
 23  14  17  1   
 24  14  30  1   
 25  14  31  1   
 26  15  18  ar  
 27  15  19  ar  
 28  16  17  1   
 29  16  32  1   
 30  16  33  1   
 31  17  34  1   
 32  17  35  1   
 33  18  20  ar  
 34  18  36  1   
 35  19  21  ar  
 36  19  37  1   
 37  20  22  ar  
 38  20  38  1   
 39  21  22  ar  
 40  21  39  1   
 41  22  23  1   
 42  23  24  1   
 43  23  40  1   
 44  23  41  1   
 45  24  42  1   
 46  24  43  1   
 47  24  44  1   
@<TRIPOS>SUBSTRUCTURE
  1 ****   8 GROUP 4 **** **** 0

# MOE 2024.06 (io_trps.svl 2023.06)
