@<TRIPOS>MOLECULE
1-(4-Ethoxy-benzenesulfonyl)-piperidine-4-carboxylic acid (2-methoxy-1-methyl-et
54 55 1 0 0 
SMALL
USER_CHARGES


@<TRIPOS>ATOM
  1 S       -0.6810     1.0100    -2.0880 S.o2  1 <1>   1.4470 
  2 O       -1.4660     2.2230    -2.1540 O.2   1 <1>  -0.6500 
  3 O       -0.3030     0.3470    -3.3190 O.2   1 <1>  -0.6500 
  4 N        0.7660     1.3890    -1.2860 N.am  1 <1>  -0.8490 
  5 C       -1.4890    -0.1670    -0.9660 C.ar  1 <1>  -0.0090 
  6 C        1.3790     2.5980    -1.8390 C.3   1 <1>   0.1960 
  7 C        1.7030     0.2600    -1.2820 C.3   1 <1>   0.1960 
  8 C       -1.5890     0.0960     0.3950 C.ar  1 <1>  -0.1500 
  9 C       -2.0330    -1.3570    -1.4390 C.ar  1 <1>  -0.1500 
 10 C        2.6020     3.0040    -1.0120 C.3   1 <1>  -0.1600 
 11 C        2.9260     0.5900    -0.4240 C.3   1 <1>  -0.1600 
 12 C       -2.2010    -0.7980     1.2550 C.ar  1 <1>  -0.1500 
 13 C       -2.6480    -2.2590    -0.5870 C.ar  1 <1>  -0.1500 
 14 C        3.6290     1.8630    -0.9260 C.3   1 <1>  -0.0190 
 15 C       -2.7340    -1.9820     0.7740 C.ar  1 <1>   0.0830 
 16 C        4.8180     2.2540    -0.0500 C.2   1 <1>   0.5690 
 17 O       -3.3150    -2.8050     1.6790 O.3   1 <1>  -0.3630 
 18 O        4.6790     2.3060     1.1470 O.2   1 <1>  -0.5700 
 19 N        5.9980     2.5440    -0.6640 N.am  1 <1>  -0.7300 
 20 C       -3.9130    -4.0200     1.2930 C.3   1 <1>   0.1200 
 21 C        7.2540     3.0280    -0.0370 C.3   1 <1>   0.2200 
 22 C       -4.4780    -4.6870     2.5430 C.3   1 <1>  -0.2400 
 23 C        7.6370     2.2230     1.2190 C.3   1 <1>   0.1200 
 24 C        7.1030     4.5210     0.2520 C.3   1 <1>  -0.2400 
 25 O        8.9550     2.5250     1.5740 O.3   1 <1>  -0.5600 
 26 C        9.3720     1.9010     2.7450 C.3   1 <1>   0.0400 
 27 H        0.6690     3.4090    -1.8170 H     1 <1>   0.0800 
 28 H        1.6610     2.4280    -2.8660 H     1 <1>   0.0800 
 29 H        2.0130     0.0340    -2.2900 H     1 <1>   0.0800 
 30 H        1.2200    -0.6130    -0.8760 H     1 <1>   0.0800 
 31 H       -1.1800     1.0140     0.7850 H     1 <1>   0.1500 
 32 H       -1.9720    -1.5810    -2.4910 H     1 <1>   0.1500 
 33 H        2.2750     3.2730    -0.0210 H     1 <1>   0.0800 
 34 H        3.0580     3.8730    -1.4520 H     1 <1>   0.0800 
 35 H        3.6140    -0.2360    -0.4470 H     1 <1>   0.0800 
 36 H        2.6080     0.7230     0.5960 H     1 <1>   0.0800 
 37 H       -2.2700    -0.5830     2.3070 H     1 <1>   0.1500 
 38 H       -3.0520    -3.1640    -0.9980 H     1 <1>   0.1500 
 39 H        3.9930     1.6670    -1.9180 H     1 <1>   0.0800 
 40 H        6.0330     2.5290    -1.6830 H     1 <1>   0.3700 
 41 H       -3.1600    -4.6410     0.8390 H     1 <1>   0.0800 
 42 H       -4.6970    -3.8050     0.5880 H     1 <1>   0.0800 
 43 H        8.0470     2.8910    -0.7530 H     1 <1>   0.0800 
 44 H       -3.6900    -4.8820     3.2480 H     1 <1>   0.0800 
 45 H       -4.9430    -5.6200     2.2810 H     1 <1>   0.0800 
 46 H       -5.2170    -4.0520     2.9990 H     1 <1>   0.0800 
 47 H        7.5760     1.1690     1.0160 H     1 <1>   0.0800 
 48 H        6.9930     2.4810     2.0410 H     1 <1>   0.0800 
 49 H        6.3210     4.6850     0.9720 H     1 <1>   0.0800 
 50 H        6.8800     5.0590    -0.6510 H     1 <1>   0.0800 
 51 H        8.0220     4.9050     0.6590 H     1 <1>   0.0800 
 52 H       10.3920     2.1890     2.9320 H     1 <1>   0.0800 
 53 H        9.3120     0.8340     2.6210 H     1 <1>   0.0800 
 54 H        8.7490     2.2240     3.5610 H     1 <1>   0.0800 
@<TRIPOS>BOND
  1   1   2  2   
  2   1   3  2   
  3   1   4  am  
  4   1   5  1   
  5   4   6  1   
  6   4   7  1   
  7   5   8  ar  
  8   5   9  ar  
  9   6  10  1   
 10   6  27  1   
 11   6  28  1   
 12   7  11  1   
 13   7  29  1   
 14   7  30  1   
 15   8  12  ar  
 16   8  31  1   
 17   9  13  ar  
 18   9  32  1   
 19  10  14  1   
 20  10  33  1   
 21  10  34  1   
 22  11  14  1   
 23  11  35  1   
 24  11  36  1   
 25  12  15  ar  
 26  12  37  1   
 27  13  15  ar  
 28  13  38  1   
 29  14  16  1   
 30  14  39  1   
 31  15  17  1   
 32  16  18  2   
 33  16  19  am  
 34  17  20  1   
 35  19  21  1   
 36  19  40  1   
 37  20  22  1   
 38  20  41  1   
 39  20  42  1   
 40  21  23  1   
 41  21  24  1   
 42  21  43  1   
 43  22  44  1   
 44  22  45  1   
 45  22  46  1   
 46  23  25  1   
 47  23  47  1   
 48  23  48  1   
 49  24  49  1   
 50  24  50  1   
 51  24  51  1   
 52  25  26  1   
 53  26  52  1   
 54  26  53  1   
 55  26  54  1   
@<TRIPOS>SUBSTRUCTURE
  1 ****   7 GROUP 4 **** **** 0

# MOE 2024.06 (io_trps.svl 2023.06)
