@<TRIPOS>MOLECULE
(1-Methyl-piperidin-4-ylidene)-acetic acid
24 24 1 0 0 
SMALL
USER_CHARGES


@<TRIPOS>ATOM
  1 O       -0.6340    -0.1040    -1.2200 O.co2 1 <1>  -0.9000 
  2 C       -1.6370    -0.7800    -0.9650 C.2   1 <1>   1.0500 
  3 O       -1.6560    -1.9960    -1.2200 O.co2 1 <1>  -0.9000 
  4 C       -2.8150    -0.1340    -0.4380 C.2   1 <1>  -0.4000 
  5 C       -3.8580    -0.6320     0.2570 C.2   1 <1>  -0.2760 
  6 C       -5.1070     0.1590     0.5780 C.3   1 <1>  -0.0220 
  7 C       -3.9830    -2.0710     0.7280 C.3   1 <1>  -0.0220 
  8 C       -6.2760    -0.5020    -0.1650 C.3   1 <1>   0.3430 
  9 C       -5.1150    -2.7090    -0.0670 C.3   1 <1>   0.3430 
 10 N       -6.4050    -1.9660     0.1770 N.4   1 <1>  -0.9590 
 11 C       -7.5180    -2.5960    -0.5890 C.3   1 <1>   0.2630 
 12 H       -2.7900     0.9020    -0.7080 H     1 <1>   0.1500 
 13 H       -4.9980     1.1750     0.2390 H     1 <1>   0.0800 
 14 H       -5.2860     0.1790     1.6380 H     1 <1>   0.0800 
 15 H       -4.1870    -2.1110     1.7820 H     1 <1>   0.0800 
 16 H       -3.0790    -2.6280     0.5660 H     1 <1>   0.0800 
 17 H       -6.0960    -0.4020    -1.2230 H     1 <1>   0.0800 
 18 H       -7.1900     0.0160     0.0730 H     1 <1>   0.0800 
 19 H       -5.2150    -3.7430     0.2190 H     1 <1>   0.0800 
 20 H       -4.8540    -2.6680    -1.1140 H     1 <1>   0.0800 
 21 H       -6.5960    -2.0300     1.1850 H     1 <1>   0.4500 
 22 H       -7.3170    -2.5420    -1.6470 H     1 <1>   0.0800 
 23 H       -8.4470    -2.0890    -0.3860 H     1 <1>   0.0800 
 24 H       -7.6220    -3.6330    -0.3110 H     1 <1>   0.0800 
@<TRIPOS>BOND
  1   1   2  ar  
  2   2   3  ar  
  3   2   4  1   
  4   4   5  2   
  5   4  12  1   
  6   5   6  1   
  7   5   7  1   
  8   6   8  1   
  9   6  13  1   
 10   6  14  1   
 11   7   9  1   
 12   7  15  1   
 13   7  16  1   
 14   8  10  1   
 15   8  17  1   
 16   8  18  1   
 17   9  10  1   
 18   9  19  1   
 19   9  20  1   
 20  10  11  1   
 21  10  21  1   
 22  11  22  1   
 23  11  23  1   
 24  11  24  1   
@<TRIPOS>SUBSTRUCTURE
  1 ****   5 GROUP 4 **** **** 0

# MOE 2024.06 (io_trps.svl 2023.06)
