@<TRIPOS>MOLECULE
N-(4-{3-[4-(3-Chloro-4-methyl-phenyl)-piperazin-1-yl]-2-hydroxy-propoxy}-phenyl)
58 60 1 0 0 
SMALL
USER_CHARGES


@<TRIPOS>ATOM
  1 CL       2.9170     4.3070     0.3990 Cl    1 <1>  -0.1770 
  2 C        3.0260     2.5840     0.1230 C.ar  1 <1>   0.1770 
  3 C        1.8880     1.8550    -0.1980 C.ar  1 <1>  -0.1440 
  4 C        4.2640     1.9850     0.2340 C.ar  1 <1>  -0.1500 
  5 C        2.0210     0.4900    -0.4080 C.ar  1 <1>  -0.1500 
  6 C        0.5280     2.5250    -0.3180 C.3   1 <1>  -0.0960 
  7 C        4.3930     0.6180     0.0220 C.ar  1 <1>   0.1000 
  8 C        3.2600    -0.1170    -0.2990 C.ar  1 <1>  -0.1500 
  9 N        5.6230    -0.0220     0.1240 N.pl3 1 <1>  -0.8380 
 10 C        6.2050    -0.1240     1.4940 C.3   1 <1>   0.2090 
 11 C        6.6220     0.2910    -0.9390 C.3   1 <1>   0.2090 
 12 C        7.3730    -1.1340     1.5180 C.3   1 <1>   0.3430 
 13 C        7.7900    -0.7180    -0.9080 C.3   1 <1>   0.3430 
 14 N        8.4100    -0.8450     0.4610 N.4   1 <1>  -0.9590 
 15 C        9.5400    -1.8250     0.4830 C.3   1 <1>   0.3430 
 16 C       10.5330    -1.5070     1.6240 C.3   1 <1>   0.2000 
 17 O       10.6190    -0.1180     1.7820 O.3   1 <1>  -0.6800 
 18 C       11.9190    -2.0800     1.3180 C.3   1 <1>   0.1200 
 19 O       11.7560    -3.4330     0.9510 O.3   1 <1>  -0.3630 
 20 C       12.8290    -4.2060     0.6380 C.ar  1 <1>   0.0830 
 21 C       12.5760    -5.5400     0.3590 C.ar  1 <1>  -0.1500 
 22 C       14.1390    -3.7350     0.5850 C.ar  1 <1>  -0.1500 
 23 C       13.6110    -6.3960     0.0300 C.ar  1 <1>  -0.1500 
 24 C       15.1700    -4.5970     0.2530 C.ar  1 <1>  -0.1500 
 25 C       14.9190    -5.9320    -0.0330 C.ar  1 <1>   0.1170 
 26 N       15.9820    -6.7830    -0.3610 N.am  1 <1>  -0.5470 
 27 C       16.1580    -7.6070    -1.4250 C.2   1 <1>   0.5690 
 28 O       17.1490    -8.2850    -1.5010 O.2   1 <1>  -0.5700 
 29 C       15.1370    -7.6780    -2.5370 C.3   1 <1>  -0.1790 
 30 H        5.1190     2.5820     0.4830 H     1 <1>   0.1500 
 31 H        1.1600    -0.1060    -0.6590 H     1 <1>   0.1500 
 32 H        0.2630     2.9890     0.6160 H     1 <1>   0.0800 
 33 H       -0.2350     1.8110    -0.5710 H     1 <1>   0.0800 
 34 H        0.5560     3.2800    -1.0830 H     1 <1>   0.0800 
 35 H        3.3560    -1.1740    -0.4630 H     1 <1>   0.1500 
 36 H        5.4400    -0.4460     2.1800 H     1 <1>   0.0800 
 37 H        6.5520     0.8430     1.8150 H     1 <1>   0.0800 
 38 H        6.9980     1.2900    -0.8020 H     1 <1>   0.0800 
 39 H        6.1390     0.2490    -1.9010 H     1 <1>   0.0800 
 40 H        6.9640    -2.1170     1.3590 H     1 <1>   0.0800 
 41 H        7.8300    -1.1170     2.4930 H     1 <1>   0.0800 
 42 H        8.5360    -0.4120    -1.6220 H     1 <1>   0.0800 
 43 H        7.4080    -1.6760    -1.2180 H     1 <1>   0.0800 
 44 H        8.8580     0.0560     0.7130 H     1 <1>   0.4500 
 45 H       10.0810    -1.7660    -0.4470 H     1 <1>   0.0800 
 46 H        9.1750    -2.8340     0.5800 H     1 <1>   0.0800 
 47 H       10.1730    -1.9210     2.5500 H     1 <1>   0.0800 
 48 H       11.2620     0.1170     2.4870 H     1 <1>   0.4000 
 49 H       12.5530    -2.0390     2.1880 H     1 <1>   0.0800 
 50 H       12.3720    -1.5620     0.4900 H     1 <1>   0.0800 
 51 H       11.5670    -5.9090     0.4060 H     1 <1>   0.1500 
 52 H       14.3810    -2.7110     0.7960 H     1 <1>   0.1500 
 53 H       13.4040    -7.4320    -0.1700 H     1 <1>   0.1500 
 54 H       16.1800    -4.2300     0.2110 H     1 <1>   0.1500 
 55 H       16.7900    -6.7700     0.2610 H     1 <1>   0.3700 
 56 H       14.7320    -6.7040    -2.7360 H     1 <1>   0.0800 
 57 H       14.3480    -8.3490    -2.2590 H     1 <1>   0.0800 
 58 H       15.6060    -8.0460    -3.4300 H     1 <1>   0.0800 
@<TRIPOS>BOND
  1   1   2  1   
  2   2   3  ar  
  3   2   4  ar  
  4   3   5  ar  
  5   3   6  1   
  6   4   7  ar  
  7   4  30  1   
  8   5   8  ar  
  9   5  31  1   
 10   6  32  1   
 11   6  33  1   
 12   6  34  1   
 13   7   8  ar  
 14   7   9  1   
 15   8  35  1   
 16   9  10  1   
 17   9  11  1   
 18  10  12  1   
 19  10  36  1   
 20  10  37  1   
 21  11  13  1   
 22  11  38  1   
 23  11  39  1   
 24  12  14  1   
 25  12  40  1   
 26  12  41  1   
 27  13  14  1   
 28  13  42  1   
 29  13  43  1   
 30  14  15  1   
 31  14  44  1   
 32  15  16  1   
 33  15  45  1   
 34  15  46  1   
 35  16  17  1   
 36  16  18  1   
 37  16  47  1   
 38  17  48  1   
 39  18  19  1   
 40  18  49  1   
 41  18  50  1   
 42  19  20  1   
 43  20  21  ar  
 44  20  22  ar  
 45  21  23  ar  
 46  21  51  1   
 47  22  24  ar  
 48  22  52  1   
 49  23  25  ar  
 50  23  53  1   
 51  24  25  ar  
 52  24  54  1   
 53  25  26  1   
 54  26  27  am  
 55  26  55  1   
 56  27  28  2   
 57  27  29  1   
 58  29  56  1   
 59  29  57  1   
 60  29  58  1   
@<TRIPOS>SUBSTRUCTURE
  1 ****  15 GROUP 4 **** **** 0

# MOE 2024.06 (io_trps.svl 2023.06)
