@<TRIPOS>MOLECULE
1-(2,5-Dimethoxy-benzenesulfonyl)-piperidine-4-carboxylic acid (2-methoxy-phenyl
56 58 1 0 0 
SMALL
USER_CHARGES


@<TRIPOS>ATOM
  1 S        0.0570     0.1800     1.5610 S.o2  1 <1>   1.4470 
  2 O        0.4270    -0.8510     2.5090 O.2   1 <1>  -0.6500 
  3 O       -0.8480     1.2130     2.0190 O.2   1 <1>  -0.6500 
  4 N        1.5060     0.9540     1.1260 N.am  1 <1>  -0.8490 
  5 C       -0.5130    -0.6470     0.0480 C.ar  1 <1>  -0.0090 
  6 C        2.2230     1.3970     2.3270 C.3   1 <1>   0.1960 
  7 C        1.2750     2.0750     0.2070 C.3   1 <1>   0.1960 
  8 C       -1.3280    -0.0160    -0.8900 C.ar  1 <1>   0.0830 
  9 C       -0.1230    -1.9560    -0.2130 C.ar  1 <1>  -0.1500 
 10 C        3.5900     1.9710     1.9520 C.3   1 <1>  -0.1600 
 11 C        2.6070     2.6760    -0.2470 C.3   1 <1>  -0.1600 
 12 O       -1.7150     1.2650    -0.7170 O.3   1 <1>  -0.3620 
 13 C       -1.7400    -0.6700    -2.0420 C.ar  1 <1>  -0.1500 
 14 C       -0.5360    -2.6250    -1.3610 C.ar  1 <1>   0.0830 
 15 C        3.4460     3.1340     0.9570 C.3   1 <1>  -0.0190 
 16 C       -3.0450     1.4660    -0.2910 C.3   1 <1>   0.0400 
 17 C       -1.3460    -1.9730    -2.2740 C.ar  1 <1>  -0.1500 
 18 O       -0.1920    -3.9040    -1.6550 O.3   1 <1>  -0.3630 
 19 C        4.7940     3.7140     0.5360 C.2   1 <1>   0.5690 
 20 C        0.5700    -4.6820    -0.7580 C.3   1 <1>   0.0400 
 21 O        5.0020     4.8810     0.7570 O.2   1 <1>  -0.5700 
 22 N        5.6920     2.8790    -0.0670 N.am  1 <1>  -0.5470 
 23 C        6.9980     3.0500    -0.5630 C.ar  1 <1>   0.1170 
 24 C        7.6590     1.9250    -1.0710 C.ar  1 <1>   0.0830 
 25 C        7.6580     4.2750    -0.5740 C.ar  1 <1>  -0.1500 
 26 O        6.9790     0.7380    -1.0450 O.3   1 <1>  -0.3630 
 27 C        8.9520     2.0430    -1.5730 C.ar  1 <1>  -0.1500 
 28 C        8.9430     4.3860    -1.0740 C.ar  1 <1>  -0.1500 
 29 C        7.5630    -0.4500    -1.5340 C.3   1 <1>   0.0400 
 30 C        9.5900     3.2710    -1.5730 C.ar  1 <1>  -0.1500 
 31 H        2.3750     0.5610     2.9910 H     1 <1>   0.0800 
 32 H        1.6390     2.1370     2.8500 H     1 <1>   0.0800 
 33 H        0.6700     2.8290     0.6850 H     1 <1>   0.0800 
 34 H        0.7510     1.7280    -0.6670 H     1 <1>   0.0800 
 35 H        0.5120    -2.4440     0.5030 H     1 <1>   0.1500 
 36 H        4.1880     1.1820     1.5320 H     1 <1>   0.0800 
 37 H        4.0840     2.3190     2.8430 H     1 <1>   0.0800 
 38 H        2.4140     3.5160    -0.8910 H     1 <1>   0.0800 
 39 H        3.1400     1.9380    -0.8200 H     1 <1>   0.0800 
 40 H       -2.3610    -0.1580    -2.7550 H     1 <1>   0.1500 
 41 H        2.9040     3.9230     1.4520 H     1 <1>   0.0800 
 42 H       -3.1970     2.5210    -0.1490 H     1 <1>   0.0800 
 43 H       -3.1950     0.9490     0.6410 H     1 <1>   0.0800 
 44 H       -3.7180     1.0920    -1.0420 H     1 <1>   0.0800 
 45 H       -1.6610    -2.4920    -3.1620 H     1 <1>   0.1500 
 46 H        0.6910    -5.6610    -1.1840 H     1 <1>   0.0800 
 47 H        0.0430    -4.7540     0.1780 H     1 <1>   0.0800 
 48 H        1.5320    -4.2210    -0.6240 H     1 <1>   0.0800 
 49 H        5.3810     1.9120    -0.1770 H     1 <1>   0.3700 
 50 H        7.1760     5.1550    -0.1920 H     1 <1>   0.1500 
 51 H        9.4810     1.1970    -1.9670 H     1 <1>   0.1500 
 52 H        9.4360     5.3420    -1.0730 H     1 <1>   0.1500 
 53 H        6.8510    -1.2470    -1.4150 H     1 <1>   0.0800 
 54 H        8.4500    -0.6650    -0.9650 H     1 <1>   0.0800 
 55 H        7.7950    -0.3230    -2.5770 H     1 <1>   0.0800 
 56 H       10.5900     3.3600    -1.9620 H     1 <1>   0.1500 
@<TRIPOS>BOND
  1   1   2  2   
  2   1   3  2   
  3   1   4  am  
  4   1   5  1   
  5   4   6  1   
  6   4   7  1   
  7   5   8  ar  
  8   5   9  ar  
  9   6  10  1   
 10   6  31  1   
 11   6  32  1   
 12   7  11  1   
 13   7  33  1   
 14   7  34  1   
 15   8  12  1   
 16   8  13  ar  
 17   9  14  ar  
 18   9  35  1   
 19  10  15  1   
 20  10  36  1   
 21  10  37  1   
 22  11  15  1   
 23  11  38  1   
 24  11  39  1   
 25  12  16  1   
 26  13  17  ar  
 27  13  40  1   
 28  14  17  ar  
 29  14  18  1   
 30  15  19  1   
 31  15  41  1   
 32  16  42  1   
 33  16  43  1   
 34  16  44  1   
 35  17  45  1   
 36  18  20  1   
 37  19  21  2   
 38  19  22  am  
 39  20  46  1   
 40  20  47  1   
 41  20  48  1   
 42  22  23  1   
 43  22  49  1   
 44  23  24  ar  
 45  23  25  ar  
 46  24  26  1   
 47  24  27  ar  
 48  25  28  ar  
 49  25  50  1   
 50  26  29  1   
 51  27  30  ar  
 52  27  51  1   
 53  28  30  ar  
 54  28  52  1   
 55  29  53  1   
 56  29  54  1   
 57  29  55  1   
 58  30  56  1   
@<TRIPOS>SUBSTRUCTURE
  1 ****  11 GROUP 4 **** **** 0

# MOE 2024.06 (io_trps.svl 2023.06)
