@<TRIPOS>MOLECULE
N-(5-Cyclohexyl-[1,3,4]thiadiazol-2-yl)-2-phenylmethanesulfonyl-acetamide
46 48 1 0 0 
SMALL
USER_CHARGES


@<TRIPOS>ATOM
  1 S        0.2980    -0.7180    -1.9310 S.o2  1 <1>   1.0900 
  2 O       -0.6430    -1.5220    -2.6760 O.2   1 <1>  -0.6500 
  3 O        1.3780    -0.0900    -2.6640 O.2   1 <1>  -0.6500 
  4 C       -0.5840     0.5360    -0.9890 C.3   1 <1>   0.0890 
  5 C        1.0540    -1.7620    -0.7110 C.3   1 <1>   0.0060 
  6 C       -1.5900    -0.0410    -0.0030 C.ar  1 <1>  -0.1440 
  7 C        2.0640    -0.9580     0.0510 C.2   1 <1>   0.5690 
  8 C       -2.7490    -0.6480    -0.4640 C.ar  1 <1>  -0.1500 
  9 C       -1.3570     0.0270     1.3630 C.ar  1 <1>  -0.1500 
 10 O        1.7980    -0.6680     1.1860 O.2   1 <1>  -0.5700 
 11 N        3.2110    -0.5650    -0.5800 N.am  1 <1>  -0.4940 
 12 C       -3.6610    -1.1830     0.4280 C.ar  1 <1>  -0.1500 
 13 C       -2.2680    -0.5090     2.2550 C.ar  1 <1>  -0.1500 
 14 C        4.3320     0.0390    -0.0510 C.2   1 <1>   0.4420 
 15 C       -3.4220    -1.1140     1.7890 C.ar  1 <1>  -0.1500 
 16 S        5.5190     0.6060    -1.1780 S.3   1 <1>  -0.0800 
 17 N        4.6740     0.2570     1.1650 N.2   1 <1>  -0.3380 
 18 C        6.4550     1.1350     0.1790 C.2   1 <1>   0.1980 
 19 N        5.8840     0.8830     1.2890 N.2   1 <1>  -0.3380 
 20 C        7.7930     1.8110    -0.1040 C.3   1 <1>   0.1000 
 21 C        8.8550     0.7670    -0.4950 C.3   1 <1>  -0.1600 
 22 C        8.2770     2.6450     1.0970 C.3   1 <1>  -0.1600 
 23 C       10.2190     1.4180    -0.7690 C.3   1 <1>  -0.1600 
 24 C        9.6370     3.3020     0.8220 C.3   1 <1>  -0.1600 
 25 C       10.6860     2.2540     0.4300 C.3   1 <1>  -0.1600 
 26 H       -1.1070     1.1820    -1.6680 H     1 <1>   0.0800 
 27 H        0.1200     1.1450    -0.4540 H     1 <1>   0.0800 
 28 H        1.5460    -2.5900    -1.1820 H     1 <1>   0.0800 
 29 H        0.3160    -2.1470    -0.0340 H     1 <1>   0.0800 
 30 H       -2.9500    -0.7140    -1.5210 H     1 <1>   0.1500 
 31 H       -0.4650     0.4930     1.7490 H     1 <1>   0.1500 
 32 H        3.1920    -0.6020    -1.6030 H     1 <1>   0.3700 
 33 H       -4.5580    -1.6540     0.0630 H     1 <1>   0.1500 
 34 H       -2.0780    -0.4540     3.3130 H     1 <1>   0.1500 
 35 H       -4.1310    -1.5300     2.4840 H     1 <1>   0.1500 
 36 H        7.6520     2.4810    -0.9340 H     1 <1>   0.0800 
 37 H        8.5360     0.2330    -1.3730 H     1 <1>   0.0800 
 38 H        8.9570     0.0530     0.3050 H     1 <1>   0.0800 
 39 H        8.3620     2.0070     1.9610 H     1 <1>   0.0800 
 40 H        7.5490     3.4040     1.3240 H     1 <1>   0.0800 
 41 H       10.1470     2.0510    -1.6370 H     1 <1>   0.0800 
 42 H       10.9480     0.6540    -0.9790 H     1 <1>   0.0800 
 43 H        9.9660     3.8280     1.7020 H     1 <1>   0.0800 
 44 H        9.5350     4.0210     0.0270 H     1 <1>   0.0800 
 45 H       11.6130     2.7450     0.1880 H     1 <1>   0.0800 
 46 H       10.8680     1.6030     1.2680 H     1 <1>   0.0800 
@<TRIPOS>BOND
  1   1   2  2   
  2   1   3  2   
  3   1   4  1   
  4   1   5  1   
  5   4   6  1   
  6   4  26  1   
  7   4  27  1   
  8   5   7  1   
  9   5  28  1   
 10   5  29  1   
 11   6   8  ar  
 12   6   9  ar  
 13   7  10  2   
 14   7  11  am  
 15   8  12  ar  
 16   8  30  1   
 17   9  13  ar  
 18   9  31  1   
 19  11  14  1   
 20  11  32  1   
 21  12  15  ar  
 22  12  33  1   
 23  13  15  ar  
 24  13  34  1   
 25  14  16  1   
 26  14  17  2   
 27  15  35  1   
 28  16  18  1   
 29  17  19  1   
 30  18  19  2   
 31  18  20  1   
 32  20  21  1   
 33  20  22  1   
 34  20  36  1   
 35  21  23  1   
 36  21  37  1   
 37  21  38  1   
 38  22  24  1   
 39  22  39  1   
 40  22  40  1   
 41  23  25  1   
 42  23  41  1   
 43  23  42  1   
 44  24  25  1   
 45  24  43  1   
 46  24  44  1   
 47  25  45  1   
 48  25  46  1   
@<TRIPOS>SUBSTRUCTURE
  1 ****  11 GROUP 4 **** **** 0

# MOE 2024.06 (io_trps.svl 2023.06)
