@<TRIPOS>MOLECULE
1-(3,5-Dimethyl-phenyl)-5-oxo-pyrrolidine-3-carboxylic acid cyclohexylamide
49 51 1 0 0 
SMALL
USER_CHARGES


@<TRIPOS>ATOM
  1 O        0.0650    -1.0390     1.7990 O.2   1 <1>  -0.5700 
  2 C        1.1540    -0.9830     1.2830 C.2   1 <1>   0.5690 
  3 N        1.7740    -1.9500     0.5440 N.am  1 <1>  -0.4770 
  4 C        2.0030     0.2530     1.3880 C.3   1 <1>  -0.0990 
  5 C        1.2920    -3.2230     0.1750 C.ar  1 <1>   0.1170 
  6 C        3.1000    -1.4770     0.0920 C.3   1 <1>   0.1400 
  7 C        3.0490     0.0460     0.2840 C.3   1 <1>  -0.0190 
  8 C        2.1570    -4.3080     0.0600 C.ar  1 <1>  -0.1500 
  9 C       -0.0560    -3.4290    -0.1000 C.ar  1 <1>  -0.1500 
 10 C        4.3980     0.6840     0.5960 C.2   1 <1>   0.5690 
 11 C        1.6980    -5.5560    -0.3250 C.ar  1 <1>  -0.1440 
 12 C       -0.5310    -4.6710    -0.4810 C.ar  1 <1>  -0.1440 
 13 O        5.3400    -0.0140     0.8720 O.2   1 <1>  -0.5700 
 14 N        4.5630     2.0270     0.5720 N.am  1 <1>  -0.7300 
 15 C        0.3510    -5.7320    -0.5950 C.ar  1 <1>  -0.1500 
 16 C        2.6500    -6.7320    -0.4460 C.3   1 <1>  -0.0970 
 17 C       -2.0070    -4.8750    -0.7730 C.3   1 <1>  -0.0970 
 18 C        3.5960     3.0950     0.2670 C.3   1 <1>   0.2200 
 19 C        4.1880     4.0050    -0.8130 C.3   1 <1>  -0.1600 
 20 C        3.3010     3.8770     1.5510 C.3   1 <1>  -0.1600 
 21 C        3.2570     5.1920    -1.1020 C.3   1 <1>  -0.1600 
 22 C        2.3670     5.0630     1.2700 C.3   1 <1>  -0.1600 
 23 C        2.9430     5.9760     0.1790 C.3   1 <1>  -0.1600 
 24 H        2.4590     0.2760     2.3610 H     1 <1>   0.0800 
 25 H        1.4130     1.1360     1.2330 H     1 <1>   0.0800 
 26 H        3.2720    -1.7390    -0.9380 H     1 <1>   0.0800 
 27 H        3.8540    -1.9280     0.7140 H     1 <1>   0.0800 
 28 H        2.6790     0.4630    -0.6340 H     1 <1>   0.0800 
 29 H        3.1990    -4.1780     0.2820 H     1 <1>   0.1500 
 30 H       -0.7380    -2.6030    -0.0130 H     1 <1>   0.1500 
 31 H        5.5010     2.3530     0.8120 H     1 <1>   0.3700 
 32 H       -0.0130    -6.7000    -0.8920 H     1 <1>   0.1500 
 33 H        3.6730    -6.4030    -0.4100 H     1 <1>   0.0800 
 34 H        2.4880    -7.2420    -1.3790 H     1 <1>   0.0800 
 35 H        2.4800    -7.4210     0.3610 H     1 <1>   0.0800 
 36 H       -2.5930    -4.0860    -0.3360 H     1 <1>   0.0800 
 37 H       -2.3400    -5.8110    -0.3620 H     1 <1>   0.0800 
 38 H       -2.1710    -4.8810    -1.8350 H     1 <1>   0.0800 
 39 H        2.6780     2.6740    -0.1040 H     1 <1>   0.0800 
 40 H        4.3360     3.4410    -1.7170 H     1 <1>   0.0800 
 41 H        5.1410     4.3820    -0.4850 H     1 <1>   0.0800 
 42 H        4.2220     4.2490     1.9660 H     1 <1>   0.0800 
 43 H        2.8420     3.2260     2.2730 H     1 <1>   0.0800 
 44 H        2.3380     4.8310    -1.5330 H     1 <1>   0.0800 
 45 H        3.7210     5.8470    -1.8200 H     1 <1>   0.0800 
 46 H        2.2220     5.6300     2.1740 H     1 <1>   0.0800 
 47 H        1.4040     4.6960     0.9560 H     1 <1>   0.0800 
 48 H        2.2400     6.7610    -0.0420 H     1 <1>   0.0800 
 49 H        3.8450     6.4390     0.5430 H     1 <1>   0.0800 
@<TRIPOS>BOND
  1   1   2  2   
  2   2   3  am  
  3   2   4  1   
  4   3   5  1   
  5   3   6  1   
  6   4   7  1   
  7   4  24  1   
  8   4  25  1   
  9   5   8  ar  
 10   5   9  ar  
 11   6   7  1   
 12   6  26  1   
 13   6  27  1   
 14   7  10  1   
 15   7  28  1   
 16   8  11  ar  
 17   8  29  1   
 18   9  12  ar  
 19   9  30  1   
 20  10  13  2   
 21  10  14  am  
 22  11  15  ar  
 23  11  16  1   
 24  12  15  ar  
 25  12  17  1   
 26  14  18  1   
 27  14  31  1   
 28  15  32  1   
 29  16  33  1   
 30  16  34  1   
 31  16  35  1   
 32  17  36  1   
 33  17  37  1   
 34  17  38  1   
 35  18  19  1   
 36  18  20  1   
 37  18  39  1   
 38  19  21  1   
 39  19  40  1   
 40  19  41  1   
 41  20  22  1   
 42  20  42  1   
 43  20  43  1   
 44  21  23  1   
 45  21  44  1   
 46  21  45  1   
 47  22  23  1   
 48  22  46  1   
 49  22  47  1   
 50  23  48  1   
 51  23  49  1   
@<TRIPOS>SUBSTRUCTURE
  1 ****   7 GROUP 4 **** **** 0

# MOE 2024.06 (io_trps.svl 2023.06)
