@<TRIPOS>MOLECULE
Methyl-(2-p-tolyloxy-ethyl)-amine
28 28 1 0 0 
SMALL
USER_CHARGES


@<TRIPOS>ATOM
  1 O        0.2810     0.1640    -0.0470 O.3   1 <1>  -0.3630 
  2 C        1.4290    -0.5580    -0.0470 C.ar  1 <1>   0.0830 
  3 C        0.3010     1.5680    -0.0210 C.3   1 <1>   0.1200 
  4 C        2.7020     0.0050    -0.0200 C.ar  1 <1>  -0.1500 
  5 C        1.2970    -1.9370    -0.0760 C.ar  1 <1>  -0.1500 
  6 C       -1.1550     2.0370    -0.0310 C.3   1 <1>   0.3430 
  7 C        3.8200    -0.8120    -0.0230 C.ar  1 <1>  -0.1500 
  8 C        2.4170    -2.7490    -0.0780 C.ar  1 <1>  -0.1500 
  9 N       -1.2630     3.5300    -0.0050 N.4   1 <1>  -0.9060 
 10 C        3.6840    -2.1900    -0.0540 C.ar  1 <1>  -0.1430 
 11 C       -2.6860     3.9830    -0.0140 C.3   1 <1>   0.2630 
 12 C        4.9130    -3.0820    -0.0550 C.3   1 <1>  -0.0970 
 13 H        0.8260     1.9090    -0.8970 H     1 <1>   0.0800 
 14 H        0.8040     1.8760     0.8790 H     1 <1>   0.0800 
 15 H        2.8530     1.0660     0.0030 H     1 <1>   0.1500 
 16 H        0.3160    -2.3750    -0.0960 H     1 <1>   0.1500 
 17 H       -1.6550     1.6230     0.8300 H     1 <1>   0.0800 
 18 H       -1.6330     1.6550    -0.9190 H     1 <1>   0.0800 
 19 H        4.8010    -0.3710    -0.0010 H     1 <1>   0.1500 
 20 H        2.2970    -3.8180    -0.0990 H     1 <1>   0.1500 
 21 H       -0.7720     3.9260    -0.8190 H     1 <1>   0.4500 
 22 H       -0.7930     3.8960     0.8360 H     1 <1>   0.4500 
 23 H       -3.1870     3.6330    -0.9030 H     1 <1>   0.0800 
 24 H       -2.7370     5.0610     0.0050 H     1 <1>   0.0800 
 25 H       -3.2090     3.6010     0.8490 H     1 <1>   0.0800 
 26 H        5.7350    -2.5890    -0.5420 H     1 <1>   0.0800 
 27 H        4.7120    -4.0000    -0.5770 H     1 <1>   0.0800 
 28 H        5.1960    -3.3120     0.9570 H     1 <1>   0.0800 
@<TRIPOS>BOND
  1   1   2  1   
  2   1   3  1   
  3   2   4  ar  
  4   2   5  ar  
  5   3   6  1   
  6   3  13  1   
  7   3  14  1   
  8   4   7  ar  
  9   4  15  1   
 10   5   8  ar  
 11   5  16  1   
 12   6   9  1   
 13   6  17  1   
 14   6  18  1   
 15   7  10  ar  
 16   7  19  1   
 17   8  10  ar  
 18   8  20  1   
 19   9  11  1   
 20   9  21  1   
 21   9  22  1   
 22  10  12  1   
 23  11  23  1   
 24  11  24  1   
 25  11  25  1   
 26  12  26  1   
 27  12  27  1   
 28  12  28  1   
@<TRIPOS>SUBSTRUCTURE
  1 ****   2 GROUP 4 **** **** 0

# MOE 2024.06 (io_trps.svl 2023.06)
