@<TRIPOS>MOLECULE
4-Methoxy-2,3,5-trimethyl-N-pyridin-2-ylmethyl-benzenesulfonamide
42 43 1 0 0 
SMALL
USER_CHARGES


@<TRIPOS>ATOM
  1 S        0.0470    -1.2590     0.5320 S.o2  1 <1>   1.4470 
  2 O       -0.1220    -1.5190     1.9440 O.2   1 <1>  -0.6500 
  3 O       -0.0480    -2.3640    -0.3940 O.2   1 <1>  -0.6500 
  4 N       -1.2190    -0.2620     0.0870 N.am  1 <1>  -0.9140 
  5 C        1.5530    -0.2810     0.2100 C.ar  1 <1>  -0.0090 
  6 C       -2.4930    -0.8060     0.5240 C.3   1 <1>   0.3390 
  7 C        1.7870     1.0070     0.7150 C.ar  1 <1>  -0.1440 
  8 C        2.5290    -0.8540    -0.5970 C.ar  1 <1>  -0.1500 
  9 C       -3.6240    -0.1440    -0.2550 C.ar  1 <1>   0.1660 
 10 C        2.9570     1.6950     0.3830 C.ar  1 <1>  -0.1430 
 11 C        0.7510     1.6720     1.6290 C.3   1 <1>  -0.0960 
 12 C        3.7040    -0.2030    -0.9140 C.ar  1 <1>  -0.1430 
 13 N       -3.6220    -0.3280    -1.5710 N.ar  1 <1>  -0.6200 
 14 C       -4.5780     0.6050     0.4200 C.ar  1 <1>  -0.1500 
 15 C        3.9210     1.0690    -0.4060 C.ar  1 <1>   0.0830 
 16 C        3.1920     3.1320     0.8550 C.3   1 <1>  -0.0970 
 17 C        4.7250    -0.8860    -1.8140 C.3   1 <1>  -0.0970 
 18 C       -4.6100     0.2530    -2.2330 C.ar  1 <1>   0.1600 
 19 C       -5.6010     1.2030    -0.2850 C.ar  1 <1>  -0.1500 
 20 O        5.0840     1.6930    -0.6980 O.3   1 <1>  -0.3620 
 21 C       -5.6070     1.0150    -1.6500 C.ar  1 <1>  -0.1500 
 22 C        6.1220     1.5370     0.2430 C.3   1 <1>   0.0400 
 23 H       -1.2710    -0.3370    -0.9310 H     1 <1>   0.4200 
 24 H       -2.6110    -0.6460     1.5820 H     1 <1>   0.0800 
 25 H       -2.5320    -1.8660     0.3330 H     1 <1>   0.0800 
 26 H        2.3610    -1.8420    -0.9920 H     1 <1>   0.1500 
 27 H        0.2190     0.9550     2.2240 H     1 <1>   0.0800 
 28 H        0.0410     2.2190     1.0350 H     1 <1>   0.0800 
 29 H        1.2110     2.3460     2.3270 H     1 <1>   0.0800 
 30 H       -4.5240     0.7230     1.4870 H     1 <1>   0.1500 
 31 H        2.2950     3.7140     0.7530 H     1 <1>   0.0800 
 32 H        3.9470     3.6250     0.2700 H     1 <1>   0.0800 
 33 H        3.5020     3.1340     1.8840 H     1 <1>   0.0800 
 34 H        4.2900    -1.7260    -2.3240 H     1 <1>   0.0800 
 35 H        5.5570    -1.2310    -1.2280 H     1 <1>   0.0800 
 36 H        5.0850    -0.1930    -2.5540 H     1 <1>   0.0800 
 37 H       -4.6260     0.1150    -3.3010 H     1 <1>   0.1500 
 38 H       -6.3580     1.7900     0.2070 H     1 <1>   0.1500 
 39 H       -6.3760     1.4550    -2.2590 H     1 <1>   0.1500 
 40 H        6.9830     2.0720    -0.1130 H     1 <1>   0.0800 
 41 H        6.3490     0.4910     0.3410 H     1 <1>   0.0800 
 42 H        5.8010     1.9380     1.1880 H     1 <1>   0.0800 
@<TRIPOS>BOND
  1   1   2  2   
  2   1   3  2   
  3   1   4  am  
  4   1   5  1   
  5   4   6  1   
  6   4  23  1   
  7   5   7  ar  
  8   5   8  ar  
  9   6   9  1   
 10   6  24  1   
 11   6  25  1   
 12   7  10  ar  
 13   7  11  1   
 14   8  12  ar  
 15   8  26  1   
 16   9  13  ar  
 17   9  14  ar  
 18  10  15  ar  
 19  10  16  1   
 20  11  27  1   
 21  11  28  1   
 22  11  29  1   
 23  12  15  ar  
 24  12  17  1   
 25  13  18  ar  
 26  14  19  ar  
 27  14  30  1   
 28  15  20  1   
 29  16  31  1   
 30  16  32  1   
 31  16  33  1   
 32  17  34  1   
 33  17  35  1   
 34  17  36  1   
 35  18  21  ar  
 36  18  37  1   
 37  19  21  ar  
 38  19  38  1   
 39  20  22  1   
 40  21  39  1   
 41  22  40  1   
 42  22  41  1   
 43  22  42  1   
@<TRIPOS>SUBSTRUCTURE
  1 ****   5 GROUP 4 **** **** 0

# MOE 2024.06 (io_trps.svl 2023.06)
