@<TRIPOS>MOLECULE
N-tert-Butyl-N-(2-hydroxy-6-methoxy-quinolin-3-ylmethyl)-propionamide
47 48 1 0 0 
SMALL
USER_CHARGES


@<TRIPOS>ATOM
  1 O       -1.7400     0.7910    -0.2090 O.2   1 <1>  -0.5700 
  2 C       -2.6750     0.2320     0.3130 C.2   1 <1>   0.5690 
  3 N       -2.8150    -1.1390     0.3290 N.am  1 <1>  -0.6600 
  4 C       -3.7090     1.1450     0.9710 C.3   1 <1>  -0.0990 
  5 C       -2.1600    -2.0370    -0.6900 C.3   1 <1>   0.3000 
  6 C       -3.3200    -1.7810     1.5860 C.3   1 <1>   0.2780 
  7 C       -4.5920     1.8570    -0.0650 C.3   1 <1>  -0.2400 
  8 C       -2.8230    -3.4260    -0.7480 C.3   1 <1>  -0.2400 
  9 C       -2.2960    -1.4420    -2.1010 C.3   1 <1>  -0.2400 
 10 C       -0.6830    -2.2120    -0.3270 C.3   1 <1>  -0.2400 
 11 C       -4.8020    -2.1370     1.5270 C.2   1 <1>  -0.1240 
 12 C       -5.3000    -2.8500     2.6640 C.2   1 <1>   0.6160 
 13 C       -5.6400    -1.8220     0.5030 C.2   1 <1>  -0.1780 
 14 O       -4.6070    -3.1560     3.6180 O.2   1 <1>  -0.5700 
 15 N       -6.6150    -3.2000     2.6840 N.am  1 <1>  -0.5470 
 16 C       -7.0220    -2.1930     0.5370 C.ar  1 <1>   0.0280 
 17 C       -7.5000    -2.8950     1.6550 C.ar  1 <1>   0.1170 
 18 C       -7.9110    -1.8870    -0.4920 C.ar  1 <1>  -0.1500 
 19 C       -8.8400    -3.2700     1.7170 C.ar  1 <1>  -0.1500 
 20 C       -9.2370    -2.2600    -0.4270 C.ar  1 <1>   0.0820 
 21 C       -9.7050    -2.9580     0.6890 C.ar  1 <1>  -0.1500 
 22 O      -10.0230    -1.9140    -1.4810 O.3   1 <1>  -0.3630 
 23 C      -11.3920    -2.2510    -1.5130 C.3   1 <1>   0.0400 
 24 H       -3.1780     1.8840     1.5440 H     1 <1>   0.0800 
 25 H       -4.3440     0.6100     1.6480 H     1 <1>   0.0800 
 26 H       -3.1600    -1.1140     2.4160 H     1 <1>   0.0800 
 27 H       -2.7400    -2.6580     1.8090 H     1 <1>   0.0800 
 28 H       -3.9810     2.4450    -0.7280 H     1 <1>   0.0800 
 29 H       -5.2920     2.5080     0.4270 H     1 <1>   0.0800 
 30 H       -5.1380     1.1380    -0.6500 H     1 <1>   0.0800 
 31 H       -3.8710    -3.3380    -0.9650 H     1 <1>   0.0800 
 32 H       -2.6880    -3.9830     0.1590 H     1 <1>   0.0800 
 33 H       -2.3790    -4.0100    -1.5340 H     1 <1>   0.0800 
 34 H       -1.9550    -2.1440    -2.8400 H     1 <1>   0.0800 
 35 H       -1.7000    -0.5570    -2.2200 H     1 <1>   0.0800 
 36 H       -3.3230    -1.2050    -2.3080 H     1 <1>   0.0800 
 37 H       -0.1980    -2.8520    -1.0400 H     1 <1>   0.0800 
 38 H       -0.5800    -2.6510     0.6480 H     1 <1>   0.0800 
 39 H       -0.1770    -1.2640    -0.3360 H     1 <1>   0.0800 
 40 H       -5.3030    -1.2890    -0.3680 H     1 <1>   0.1500 
 41 H       -6.9210    -3.7070     3.5130 H     1 <1>   0.3700 
 42 H       -7.5620    -1.3500    -1.3550 H     1 <1>   0.1500 
 43 H       -9.1980    -3.8080     2.5760 H     1 <1>   0.1500 
 44 H      -10.7320    -3.2610     0.7640 H     1 <1>   0.1500 
 45 H      -11.8050    -1.8790    -2.4340 H     1 <1>   0.0800 
 46 H      -11.8860    -1.7870    -0.6780 H     1 <1>   0.0800 
 47 H      -11.4890    -3.3210    -1.4750 H     1 <1>   0.0800 
@<TRIPOS>BOND
  1   1   2  2   
  2   2   3  am  
  3   2   4  1   
  4   3   5  1   
  5   3   6  1   
  6   4   7  1   
  7   4  24  1   
  8   4  25  1   
  9   5   8  1   
 10   5   9  1   
 11   5  10  1   
 12   6  11  1   
 13   6  26  1   
 14   6  27  1   
 15   7  28  1   
 16   7  29  1   
 17   7  30  1   
 18   8  31  1   
 19   8  32  1   
 20   8  33  1   
 21   9  34  1   
 22   9  35  1   
 23   9  36  1   
 24  10  37  1   
 25  10  38  1   
 26  10  39  1   
 27  11  12  1   
 28  11  13  2   
 29  12  14  2   
 30  12  15  am  
 31  13  16  1   
 32  13  40  1   
 33  15  17  1   
 34  15  41  1   
 35  16  17  ar  
 36  16  18  ar  
 37  17  19  ar  
 38  18  20  ar  
 39  18  42  1   
 40  19  21  ar  
 41  19  43  1   
 42  20  21  ar  
 43  20  22  1   
 44  21  44  1   
 45  22  23  1   
 46  23  45  1   
 47  23  46  1   
 48  23  47  1   
@<TRIPOS>SUBSTRUCTURE
  1 ****  13 GROUP 4 **** **** 0

# MOE 2024.06 (io_trps.svl 2023.06)
