@<TRIPOS>MOLECULE
8-Cyclohexylamino-7-(2-hydroxy-3-isopropoxy-propyl)-3-methyl-3,7-dihydro-purine-
57 59 1 0 0 
SMALL
USER_CHARGES


@<TRIPOS>ATOM
  1 O        0.6940     1.0970    -2.2160 O.2   1 <1>  -0.5740 
  2 C        1.7440     1.3930    -1.6960 C.2   1 <1>   0.6870 
  3 N        2.6820     0.4400    -1.3260 N.am  1 <1>  -0.4410 
  4 N        2.0080     2.7130    -1.4720 N.am  1 <1>  -0.4950 
  5 C        3.8650     0.8900    -0.7580 C.2   1 <1>   0.4210 
  6 C        2.4310    -1.0140    -1.5470 C.3   1 <1>   0.0530 
  7 C        3.1630     3.1720    -0.9090 C.2   1 <1>   0.7000 
  8 N        4.9280     0.1460    -0.3480 N.pl3 1 <1>  -0.7030 
  9 C        4.1430     2.1950    -0.5320 C.2   1 <1>   0.2710 
 10 O        3.3120     4.3680    -0.7580 O.2   1 <1>  -0.5740 
 11 C        5.8590     0.9760     0.1120 C.cat 1 <1>   1.0690 
 12 N        5.4260     2.2360     0.0470 N.pl3 1 <1>  -0.7670 
 13 N        7.0470     0.5990     0.5510 N.pl3 1 <1>  -0.7170 
 14 C        6.0850     3.4820     0.5580 C.3   1 <1>   0.3490 
 15 C        7.6040    -0.7500     0.6850 C.3   1 <1>   0.2420 
 16 C        7.3110     3.8990    -0.2740 C.3   1 <1>   0.1940 
 17 C        8.4670    -0.8010     1.9480 C.3   1 <1>  -0.1660 
 18 C        8.4290    -1.0720    -0.5660 C.3   1 <1>  -0.1660 
 19 O        8.3190     2.9450    -0.1630 O.3   1 <1>  -0.6830 
 20 C        7.8990     5.2460     0.1700 C.3   1 <1>   0.1130 
 21 C        9.1520    -2.1670     2.0890 C.3   1 <1>  -0.1660 
 22 C        9.1130    -2.4400    -0.4340 C.3   1 <1>  -0.1660 
 23 O        9.1810     5.3610    -0.3730 O.3   1 <1>  -0.5640 
 24 C        9.9700    -2.5080     0.8360 C.3   1 <1>  -0.1660 
 25 C        9.8430     6.5520    -0.0980 C.3   1 <1>   0.1940 
 26 C        9.4400     7.5910    -1.1440 C.3   1 <1>  -0.2460 
 27 C       11.3350     6.2470    -0.1690 C.3   1 <1>  -0.2460 
 28 H        1.2980     3.3860    -1.7560 H     1 <1>   0.3650 
 29 H        1.4090    -1.1870    -1.8380 H     1 <1>   0.0730 
 30 H        2.6190    -1.5630    -0.6410 H     1 <1>   0.0730 
 31 H        3.0730    -1.3800    -2.3300 H     1 <1>   0.0730 
 32 H        5.0420    -0.8610    -0.4110 H     1 <1>   0.4450 
 33 H        7.7550     1.3500     0.5740 H     1 <1>   0.4450 
 34 H        6.3890     3.3340     1.5810 H     1 <1>   0.0730 
 35 H        5.3770     4.2920     0.5550 H     1 <1>   0.0730 
 36 H        6.8100    -1.4720     0.7820 H     1 <1>   0.0730 
 37 H        7.0380     3.9740    -1.3130 H     1 <1>   0.0730 
 38 H        7.8570    -0.6240     2.8160 H     1 <1>   0.0730 
 39 H        9.2270    -0.0390     1.9020 H     1 <1>   0.0730 
 40 H        9.1890    -0.3200    -0.7030 H     1 <1>   0.0730 
 41 H        7.7980    -1.0790    -1.4370 H     1 <1>   0.0730 
 42 H        9.1550     3.4250    -0.4020 H     1 <1>   0.3950 
 43 H        7.9780     5.2930     1.2430 H     1 <1>   0.0730 
 44 H        7.2860     6.0580    -0.1820 H     1 <1>   0.0730 
 45 H        8.4100    -2.9310     2.2480 H     1 <1>   0.0730 
 46 H        9.8010    -2.1580     2.9480 H     1 <1>   0.0730 
 47 H        9.7360    -2.6170    -1.2940 H     1 <1>   0.0730 
 48 H        8.3690    -3.2170    -0.4020 H     1 <1>   0.0730 
 49 H       10.3860    -3.4970     0.9370 H     1 <1>   0.0730 
 50 H       10.7920    -1.8170     0.7490 H     1 <1>   0.0730 
 51 H        9.5900     6.8840     0.8960 H     1 <1>   0.0730 
 52 H        9.6440     7.2220    -2.1340 H     1 <1>   0.0730 
 53 H       10.0050     8.4930    -0.9950 H     1 <1>   0.0730 
 54 H        8.3980     7.8360    -1.0610 H     1 <1>   0.0730 
 55 H       11.5990     5.8910    -1.1490 H     1 <1>   0.0730 
 56 H       11.5940     5.5050     0.5630 H     1 <1>   0.0730 
 57 H       11.9010     7.1380     0.0360 H     1 <1>   0.0730 
@<TRIPOS>BOND
  1   1   2  2   
  2   2   3  am  
  3   2   4  am  
  4   3   5  1   
  5   3   6  1   
  6   4   7  am  
  7   4  28  1   
  8   5   8  1   
  9   5   9  2   
 10   6  29  1   
 11   6  30  1   
 12   6  31  1   
 13   7   9  1   
 14   7  10  2   
 15   8  11  ar  
 16   8  32  1   
 17   9  12  1   
 18  11  12  ar  
 19  11  13  ar  
 20  12  14  1   
 21  13  15  1   
 22  13  33  1   
 23  14  16  1   
 24  14  34  1   
 25  14  35  1   
 26  15  17  1   
 27  15  18  1   
 28  15  36  1   
 29  16  19  1   
 30  16  20  1   
 31  16  37  1   
 32  17  21  1   
 33  17  38  1   
 34  17  39  1   
 35  18  22  1   
 36  18  40  1   
 37  18  41  1   
 38  19  42  1   
 39  20  23  1   
 40  20  43  1   
 41  20  44  1   
 42  21  24  1   
 43  21  45  1   
 44  21  46  1   
 45  22  24  1   
 46  22  47  1   
 47  22  48  1   
 48  23  25  1   
 49  24  49  1   
 50  24  50  1   
 51  25  26  1   
 52  25  27  1   
 53  25  51  1   
 54  26  52  1   
 55  26  53  1   
 56  26  54  1   
 57  27  55  1   
 58  27  56  1   
 59  27  57  1   
@<TRIPOS>SUBSTRUCTURE
  1 ****  12 GROUP 4 **** **** 0

# MOE 2024.06 (io_trps.svl 2023.06)
