@<TRIPOS>MOLECULE
5,6-Dimethyl-1-(morpholine-4-sulfonyl)-1H-benzoimidazole
37 39 1 0 0 
SMALL
USER_CHARGES


@<TRIPOS>ATOM
  1 S        0.0000    -0.1830    -1.8940 S.o2  1 <1>   1.4240 
  2 O       -0.1130     0.8990    -2.8480 O.2   1 <1>  -0.6500 
  3 O       -0.1600    -1.5510    -2.3400 O.2   1 <1>  -0.6500 
  4 N       -1.1960     0.0790    -0.7110 N.am  1 <1>  -0.8490 
  5 N        1.5440    -0.0610    -1.0460 N.pl3 1 <1>   0.3170 
  6 C       -1.2650    -0.9510     0.3370 C.3   1 <1>   0.1960 
  7 C       -1.2080     1.4340    -0.1360 C.3   1 <1>   0.1960 
  8 C        2.1900     1.0620    -0.6080 C.ar  1 <1>  -0.1520 
  9 C        2.1510    -1.0810    -0.3800 C.2   1 <1>   0.0360 
 10 C       -2.4460    -0.6870     1.2890 C.3   1 <1>   0.1200 
 11 C       -2.3920     1.6080     0.8320 C.3   1 <1>   0.1200 
 12 C        3.1270     0.6290     0.3060 C.ar  1 <1>   0.2270 
 13 C        2.0570     2.4200    -0.9090 C.ar  1 <1>  -0.1500 
 14 N        3.0850    -0.7260     0.4290 N.2   1 <1>  -0.5650 
 15 O       -2.3710     0.6090     1.8120 O.3   1 <1>  -0.5600 
 16 C        3.9420     1.5510     0.9550 C.ar  1 <1>  -0.1500 
 17 C        2.8640     3.3330    -0.2640 C.ar  1 <1>  -0.1430 
 18 C        3.8130     2.8970     0.6780 C.ar  1 <1>  -0.1430 
 19 C        2.7150     4.8120    -0.5940 C.3   1 <1>  -0.0970 
 20 C        4.7140     3.8880     1.4020 C.3   1 <1>  -0.0970 
 21 H       -0.3560    -0.9640     0.9140 H     1 <1>   0.0800 
 22 H       -1.3950    -1.9210    -0.1150 H     1 <1>   0.0800 
 23 H       -1.2920     2.1620    -0.9250 H     1 <1>   0.0800 
 24 H       -0.2970     1.6220     0.4050 H     1 <1>   0.0800 
 25 H        1.8390    -2.1000    -0.5370 H     1 <1>   0.1500 
 26 H       -2.4240    -1.3770     2.1130 H     1 <1>   0.0800 
 27 H       -3.3820    -0.7960     0.7690 H     1 <1>   0.0800 
 28 H       -3.3260     1.5520     0.3000 H     1 <1>   0.0800 
 29 H       -2.3310     2.5590     1.3290 H     1 <1>   0.0800 
 30 H        1.3350     2.7390    -1.6420 H     1 <1>   0.1500 
 31 H        4.6570     1.1780     1.6640 H     1 <1>   0.1500 
 32 H        1.9520     4.9690    -1.3350 H     1 <1>   0.0800 
 33 H        3.6410     5.1990    -0.9800 H     1 <1>   0.0800 
 34 H        2.4460     5.3630     0.2890 H     1 <1>   0.0800 
 35 H        5.3710     3.3810     2.0860 H     1 <1>   0.0800 
 36 H        4.1200     4.5870     1.9630 H     1 <1>   0.0800 
 37 H        5.3160     4.4260     0.6930 H     1 <1>   0.0800 
@<TRIPOS>BOND
  1   1   2  2   
  2   1   3  2   
  3   1   4  am  
  4   1   5  1   
  5   4   6  1   
  6   4   7  1   
  7   5   8  1   
  8   5   9  1   
  9   6  10  1   
 10   6  21  1   
 11   6  22  1   
 12   7  11  1   
 13   7  23  1   
 14   7  24  1   
 15   8  12  ar  
 16   8  13  ar  
 17   9  14  2   
 18   9  25  1   
 19  10  15  1   
 20  10  26  1   
 21  10  27  1   
 22  11  15  1   
 23  11  28  1   
 24  11  29  1   
 25  12  14  1   
 26  12  16  ar  
 27  13  17  ar  
 28  13  30  1   
 29  16  18  ar  
 30  16  31  1   
 31  17  18  ar  
 32  17  19  1   
 33  18  20  1   
 34  19  32  1   
 35  19  33  1   
 36  19  34  1   
 37  20  35  1   
 38  20  36  1   
 39  20  37  1   
@<TRIPOS>SUBSTRUCTURE
  1 ****   8 GROUP 4 **** **** 0

# MOE 2024.06 (io_trps.svl 2023.06)
