@<TRIPOS>MOLECULE
8-Furan-2-ylmethyl-1-methyl-3-propyl-5,6,7,8-tetrahydro-1H-1,3,4b,8,9-pentaaza-f
47 50 1 0 0 
SMALL
USER_CHARGES


@<TRIPOS>ATOM
  1 O        1.9110    -0.0370     1.2910 O.2   1 <1>  -0.5750 
  2 C        2.6400     0.7000     0.6590 C.2   1 <1>   0.6860 
  3 N        2.1080     1.7600    -0.0710 N.am  1 <1>  -0.4260 
  4 N        4.0120     0.4840     0.6720 N.am  1 <1>  -0.4420 
  5 C        2.9260     2.6240    -0.7860 C.2   1 <1>   0.6990 
  6 C        0.6330     1.9900    -0.0580 C.3   1 <1>   0.1320 
  7 C        4.8130     1.3620    -0.0280 C.2   1 <1>   0.4200 
  8 C        4.6100    -0.6460     1.4430 C.3   1 <1>   0.0520 
  9 O        2.4600     3.5500    -1.4300 O.2   1 <1>  -0.5750 
 10 C        4.3380     2.4010    -0.7440 C.2   1 <1>   0.2700 
 11 C        0.2580     2.9290     1.0940 C.3   1 <1>  -0.1680 
 12 N        6.1680     1.3600    -0.1250 N.pl3 1 <1>  -0.7040 
 13 N        5.4630     3.0400    -1.2930 N.pl3 1 <1>  -0.7670 
 14 C       -1.2520     3.1820     1.1300 C.3   1 <1>  -0.2470 
 15 C        6.5480     2.3800    -0.8880 C.cat 1 <1>   1.0690 
 16 C        5.4630     4.2410    -2.1490 C.3   1 <1>   0.3480 
 17 N        7.7990     2.7590    -1.2330 N.pl3 1 <1>  -0.5970 
 18 C        6.7770     4.2760    -2.9310 C.3   1 <1>  -0.1680 
 19 C        7.9920     4.0030    -2.0350 C.3   1 <1>   0.1600 
 20 C        9.0890     2.0890    -0.8590 C.3   1 <1>   0.3410 
 21 C        8.9360     0.7790    -0.1020 C.2   1 <1>  -0.0490 
 22 O        8.5950     0.8100     1.1730 O.3   1 <1>  -0.2870 
 23 C        9.0910    -0.4980    -0.5150 C.2   1 <1>  -0.1580 
 24 C        8.5410    -0.4350     1.6050 C.2   1 <1>  -0.0190 
 25 C        8.8290    -1.2950     0.6060 C.2   1 <1>  -0.1580 
 26 H        0.1150     1.0520     0.0550 H     1 <1>   0.0720 
 27 H        0.3190     2.4200    -0.9940 H     1 <1>   0.0720 
 28 H        3.8810    -1.4210     1.6070 H     1 <1>   0.0720 
 29 H        4.9540    -0.2900     2.3980 H     1 <1>   0.0720 
 30 H        5.4360    -1.0730     0.9010 H     1 <1>   0.0720 
 31 H        0.7650     3.8710     0.9740 H     1 <1>   0.0720 
 32 H        0.5580     2.4880     2.0290 H     1 <1>   0.0720 
 33 H        6.8460     0.7510     0.3460 H     1 <1>   0.4440 
 34 H       -1.5800     3.6400     0.2130 H     1 <1>   0.0720 
 35 H       -1.4940     3.8410     1.9450 H     1 <1>   0.0720 
 36 H       -1.7860     2.2590     1.2690 H     1 <1>   0.0720 
 37 H        5.3710     5.1180    -1.5290 H     1 <1>   0.0720 
 38 H        4.6270     4.2130    -2.8300 H     1 <1>   0.0720 
 39 H        6.8830     5.2380    -3.4000 H     1 <1>   0.0720 
 40 H        6.7410     3.5430    -3.7180 H     1 <1>   0.0720 
 41 H        8.8690     3.9110    -2.6560 H     1 <1>   0.0720 
 42 H        8.1440     4.8320    -1.3620 H     1 <1>   0.0720 
 43 H        9.6770     2.7630    -0.2600 H     1 <1>   0.0720 
 44 H        9.6410     1.8880    -1.7610 H     1 <1>   0.0720 
 45 H        9.3660    -0.8750    -1.4870 H     1 <1>   0.1420 
 46 H        8.2980    -0.6230     2.6380 H     1 <1>   0.1420 
 47 H        8.8730    -2.3710     0.6330 H     1 <1>   0.1420 
@<TRIPOS>BOND
  1   1   2  2   
  2   2   3  am  
  3   2   4  am  
  4   3   5  am  
  5   3   6  1   
  6   4   7  1   
  7   4   8  1   
  8   5   9  2   
  9   5  10  1   
 10   6  11  1   
 11   6  26  1   
 12   6  27  1   
 13   7  10  2   
 14   7  12  1   
 15   8  28  1   
 16   8  29  1   
 17   8  30  1   
 18  10  13  1   
 19  11  14  1   
 20  11  31  1   
 21  11  32  1   
 22  12  15  ar  
 23  12  33  1   
 24  13  15  ar  
 25  13  16  1   
 26  14  34  1   
 27  14  35  1   
 28  14  36  1   
 29  15  17  ar  
 30  16  18  1   
 31  16  37  1   
 32  16  38  1   
 33  17  19  1   
 34  17  20  1   
 35  18  19  1   
 36  18  39  1   
 37  18  40  1   
 38  19  41  1   
 39  19  42  1   
 40  20  21  1   
 41  20  43  1   
 42  20  44  1   
 43  21  22  1   
 44  21  23  2   
 45  22  24  1   
 46  23  25  1   
 47  23  45  1   
 48  24  25  2   
 49  24  46  1   
 50  25  47  1   
@<TRIPOS>SUBSTRUCTURE
  1 ****   7 GROUP 4 **** **** 0

# MOE 2024.06 (io_trps.svl 2023.06)
