@<TRIPOS>MOLECULE
7-(3-Chloro-benzyl)-1,3-dimethyl-8-(4-methyl-piperidin-1-ylmethyl)-3,7-dihydro-p
56 59 1 0 0 
SMALL
USER_CHARGES


@<TRIPOS>ATOM
  1 CL       1.7690    -2.6850    -2.7470 Cl    1 <1>  -0.1770 
  2 C        1.5300    -3.1820    -1.0940 C.ar  1 <1>   0.1770 
  3 C        0.3640    -3.8390    -0.7520 C.ar  1 <1>  -0.1500 
  4 C        2.5110    -2.9210    -0.1570 C.ar  1 <1>  -0.1500 
  5 C        0.1730    -4.2590     0.5580 C.ar  1 <1>  -0.1440 
  6 C        2.3170    -3.3270     1.1520 C.ar  1 <1>  -0.1500 
  7 C        1.1530    -3.9900     1.5070 C.ar  1 <1>  -0.1500 
  8 C       -1.0920    -5.0040     0.9520 C.3   1 <1>   0.4980 
  9 N       -0.9440    -6.4860     0.8040 N.pl3 1 <1>  -0.7640 
 10 C       -1.9710    -7.3470     1.2160 C.2   1 <1>   0.2770 
 11 C        0.0270    -7.2610     0.3090 C.cat 1 <1>   0.6560 
 12 C       -3.2590    -7.1630     1.8200 C.2   1 <1>   0.7030 
 13 C       -1.5630    -8.6090     0.9460 C.2   1 <1>   0.4260 
 14 N       -0.3350    -8.5350     0.3890 N.pl3 1 <1>  -0.7000 
 15 C        1.3960    -6.9110    -0.3070 C.3   1 <1>   0.2540 
 16 O       -3.6690    -6.0450     2.0820 O.2   1 <1>  -0.5700 
 17 N       -4.0230    -8.2880     2.1010 N.am  1 <1>  -0.4200 
 18 N       -2.3130    -9.7370     1.2200 N.am  1 <1>  -0.4360 
 19 N        2.2220    -8.1320    -0.5270 N.3   1 <1>  -0.8100 
 20 C       -3.5460    -9.5670     1.8320 C.2   1 <1>   0.6900 
 21 C       -5.3690    -8.1410     2.7400 C.3   1 <1>   0.0600 
 22 C       -1.7930   -11.0980     0.8970 C.3   1 <1>   0.0600 
 23 C        2.9730    -8.5000     0.6900 C.3   1 <1>   0.1100 
 24 C        3.1400    -7.9590    -1.6660 C.3   1 <1>   0.1100 
 25 O       -4.2070   -10.5380     2.1400 O.2   1 <1>  -0.5700 
 26 C        3.6740    -9.8440     0.4780 C.3   1 <1>  -0.1600 
 27 C        3.8550    -9.2800    -1.9600 C.3   1 <1>  -0.1600 
 28 C        4.6190    -9.7900    -0.7300 C.3   1 <1>  -0.0800 
 29 C        5.2360   -11.1660    -1.0020 C.3   1 <1>  -0.2400 
 30 H       -0.3760    -4.0140    -1.5150 H     1 <1>   0.1500 
 31 H        3.4080    -2.4040    -0.4490 H     1 <1>   0.1500 
 32 H        3.0710    -3.1210     1.8940 H     1 <1>   0.1500 
 33 H        1.0220    -4.2940     2.5340 H     1 <1>   0.1500 
 34 H       -1.9140    -4.6650     0.3420 H     1 <1>   0.0800 
 35 H       -1.3340    -4.7710     1.9760 H     1 <1>   0.0800 
 36 H        0.2980    -9.2690     0.0480 H     1 <1>   0.4500 
 37 H        1.9310    -6.2240     0.3210 H     1 <1>   0.0800 
 38 H        1.2100    -6.4300    -1.2510 H     1 <1>   0.0800 
 39 H       -5.7700    -7.1550     2.5810 H     1 <1>   0.0800 
 40 H       -5.2870    -8.3200     3.7980 H     1 <1>   0.0800 
 41 H       -6.0580    -8.8550     2.3200 H     1 <1>   0.0800 
 42 H       -1.1190   -11.4220     1.6710 H     1 <1>   0.0800 
 43 H       -1.2770   -11.0880    -0.0460 H     1 <1>   0.0800 
 44 H       -2.6020   -11.8070     0.8280 H     1 <1>   0.0800 
 45 H        2.3060    -8.5830     1.5300 H     1 <1>   0.0800 
 46 H        3.7070    -7.7420     0.9140 H     1 <1>   0.0800 
 47 H        3.8650    -7.1910    -1.4470 H     1 <1>   0.0800 
 48 H        2.5870    -7.6640    -2.5430 H     1 <1>   0.0800 
 49 H        2.9330   -10.6090     0.3330 H     1 <1>   0.0800 
 50 H        4.2350   -10.0930     1.3620 H     1 <1>   0.0800 
 51 H        4.5420    -9.1360    -2.7760 H     1 <1>   0.0800 
 52 H        3.1260   -10.0080    -2.2710 H     1 <1>   0.0800 
 53 H        5.4150    -9.0980    -0.5120 H     1 <1>   0.0800 
 54 H        4.4720   -11.8890    -1.2300 H     1 <1>   0.0800 
 55 H        5.7840   -11.5060    -0.1420 H     1 <1>   0.0800 
 56 H        5.9140   -11.1120    -1.8350 H     1 <1>   0.0800 
@<TRIPOS>BOND
  1   1   2  1   
  2   2   3  ar  
  3   2   4  ar  
  4   3   5  ar  
  5   3  30  1   
  6   4   6  ar  
  7   4  31  1   
  8   5   7  ar  
  9   5   8  1   
 10   6   7  ar  
 11   6  32  1   
 12   7  33  1   
 13   8   9  1   
 14   8  34  1   
 15   8  35  1   
 16   9  10  1   
 17   9  11  ar  
 18  10  12  1   
 19  10  13  2   
 20  11  14  ar  
 21  11  15  1   
 22  12  16  2   
 23  12  17  am  
 24  13  14  1   
 25  13  18  1   
 26  14  36  1   
 27  15  19  1   
 28  15  37  1   
 29  15  38  1   
 30  17  20  am  
 31  17  21  1   
 32  18  20  am  
 33  18  22  1   
 34  19  23  1   
 35  19  24  1   
 36  20  25  2   
 37  21  39  1   
 38  21  40  1   
 39  21  41  1   
 40  22  42  1   
 41  22  43  1   
 42  22  44  1   
 43  23  26  1   
 44  23  45  1   
 45  23  46  1   
 46  24  27  1   
 47  24  47  1   
 48  24  48  1   
 49  26  28  1   
 50  26  49  1   
 51  26  50  1   
 52  27  28  1   
 53  27  51  1   
 54  27  52  1   
 55  28  29  1   
 56  28  53  1   
 57  29  54  1   
 58  29  55  1   
 59  29  56  1   
@<TRIPOS>SUBSTRUCTURE
  1 ****  11 GROUP 4 **** **** 0

# MOE 2024.06 (io_trps.svl 2023.06)
