@<TRIPOS>MOLECULE
3-Methyl-7-(3-phenoxy-propyl)-8-propylamino-3,7-dihydro-purine-2,6-dione
50 52 1 0 0 
SMALL
USER_CHARGES


@<TRIPOS>ATOM
  1 O        1.3850     1.5880    -2.1140 O.2   1 <1>  -0.5750 
  2 C        2.3300     1.7770    -1.3850 C.2   1 <1>   0.6860 
  3 N        3.2770     0.7950    -1.1290 N.am  1 <1>  -0.4420 
  4 N        2.4640     3.0020    -0.7990 N.am  1 <1>  -0.4950 
  5 C        4.3370     1.1260    -0.2980 C.2   1 <1>   0.4200 
  6 C        3.1660    -0.5600    -1.7430 C.3   1 <1>   0.0520 
  7 C        3.4920     3.3390     0.0340 C.2   1 <1>   0.6990 
  8 N        5.3780     0.3350     0.0790 N.pl3 1 <1>  -0.7040 
  9 C        4.4930     2.3400     0.2780 C.2   1 <1>   0.2700 
 10 O        3.5070     4.4460     0.5330 O.2   1 <1>  -0.5750 
 11 C        6.1730     1.0460     0.8720 C.cat 1 <1>   1.0690 
 12 N        5.6900     2.2790     1.0220 N.pl3 1 <1>  -0.7670 
 13 N        7.2990     0.5940     1.4170 N.pl3 1 <1>  -0.7180 
 14 C        6.2500     3.4540     1.7440 C.3   1 <1>   0.3480 
 15 C        7.9190    -0.7390     1.2510 C.3   1 <1>   0.1600 
 16 C        6.9060     4.4240     0.7590 C.3   1 <1>  -0.1670 
 17 C        9.0410    -0.6360     0.2190 C.3   1 <1>  -0.1670 
 18 C        8.1220     3.8300     0.0340 C.3   1 <1>   0.1120 
 19 C        9.6970    -1.9990    -0.0160 C.3   1 <1>  -0.2470 
 20 O        8.4770     4.6720    -1.0350 O.3   1 <1>  -0.3690 
 21 C        9.0460     5.8900    -0.8490 C.ar  1 <1>   0.0750 
 22 C        8.9680     6.7800    -1.9090 C.ar  1 <1>  -0.1570 
 23 C        9.6860     6.2790     0.3250 C.ar  1 <1>  -0.1570 
 24 C        9.5090     8.0490    -1.8010 C.ar  1 <1>  -0.1570 
 25 C       10.2270     7.5490     0.4310 C.ar  1 <1>  -0.1570 
 26 C       10.1370     8.4340    -0.6290 C.ar  1 <1>  -0.1570 
 27 H        1.7480     3.6980    -0.9980 H     1 <1>   0.3640 
 28 H        2.2200    -0.6780    -2.2450 H     1 <1>   0.0720 
 29 H        3.2370    -1.3170    -0.9810 H     1 <1>   0.0720 
 30 H        3.9530    -0.7000    -2.4640 H     1 <1>   0.0720 
 31 H        5.5480    -0.6260    -0.2030 H     1 <1>   0.4450 
 32 H        7.8440     1.2330     1.9920 H     1 <1>   0.4450 
 33 H        6.9700     3.1360     2.4790 H     1 <1>   0.0720 
 34 H        5.4550     3.9620     2.2660 H     1 <1>   0.0720 
 35 H        7.1890    -1.4620     0.9290 H     1 <1>   0.0720 
 36 H        8.3200    -1.0690     2.1960 H     1 <1>   0.0720 
 37 H        7.2190     5.2950     1.3070 H     1 <1>   0.0720 
 38 H        6.1780     4.7460     0.0360 H     1 <1>   0.0720 
 39 H        9.7940     0.0530     0.5640 H     1 <1>   0.0720 
 40 H        8.6510    -0.2760    -0.7180 H     1 <1>   0.0720 
 41 H        7.8770     2.8820    -0.4090 H     1 <1>   0.0720 
 42 H        8.9700     3.6980     0.6800 H     1 <1>   0.0720 
 43 H       10.1220    -2.3810     0.8960 H     1 <1>   0.0720 
 44 H       10.4880    -1.9060    -0.7410 H     1 <1>   0.0720 
 45 H        8.9810    -2.7110    -0.3890 H     1 <1>   0.0720 
 46 H        8.4810     6.4760    -2.8170 H     1 <1>   0.1430 
 47 H        9.7810     5.6150     1.1600 H     1 <1>   0.1430 
 48 H        9.4430     8.7350    -2.6270 H     1 <1>   0.1430 
 49 H       10.7210     7.8520     1.3380 H     1 <1>   0.1430 
 50 H       10.5570     9.4210    -0.5440 H     1 <1>   0.1430 
@<TRIPOS>BOND
  1   1   2  2   
  2   2   3  am  
  3   2   4  am  
  4   3   5  1   
  5   3   6  1   
  6   4   7  am  
  7   4  27  1   
  8   5   8  1   
  9   5   9  2   
 10   6  28  1   
 11   6  29  1   
 12   6  30  1   
 13   7   9  1   
 14   7  10  2   
 15   8  11  ar  
 16   8  31  1   
 17   9  12  1   
 18  11  12  ar  
 19  11  13  ar  
 20  12  14  1   
 21  13  15  1   
 22  13  32  1   
 23  14  16  1   
 24  14  33  1   
 25  14  34  1   
 26  15  17  1   
 27  15  35  1   
 28  15  36  1   
 29  16  18  1   
 30  16  37  1   
 31  16  38  1   
 32  17  19  1   
 33  17  39  1   
 34  17  40  1   
 35  18  20  1   
 36  18  41  1   
 37  18  42  1   
 38  19  43  1   
 39  19  44  1   
 40  19  45  1   
 41  20  21  1   
 42  21  22  ar  
 43  21  23  ar  
 44  22  24  ar  
 45  22  46  1   
 46  23  25  ar  
 47  23  47  1   
 48  24  26  ar  
 49  24  48  1   
 50  25  26  ar  
 51  25  49  1   
 52  26  50  1   
@<TRIPOS>SUBSTRUCTURE
  1 ****  12 GROUP 4 **** **** 0

# MOE 2024.06 (io_trps.svl 2023.06)
