@<TRIPOS>MOLECULE
1-(4-Methoxy-3-methyl-benzenesulfonyl)-piperidine-4-carboxylic acid (pyridin-2-y
53 55 1 0 0 
SMALL
USER_CHARGES


@<TRIPOS>ATOM
  1 S       -0.0470     0.5070    -2.5280 S.o2  1 <1>   1.4470 
  2 O        0.4750    -0.3930    -3.5330 O.2   1 <1>  -0.6500 
  3 O       -0.8710     1.6260    -2.9360 O.2   1 <1>  -0.6500 
  4 N        1.2850     1.1650    -1.7100 N.am  1 <1>  -0.8490 
  5 C       -0.8750    -0.4570    -1.2350 C.ar  1 <1>  -0.0090 
  6 C        0.8810     2.1890    -0.7420 C.3   1 <1>   0.1960 
  7 C        2.2810     1.6880    -2.6480 C.3   1 <1>   0.1960 
  8 C       -2.1710    -0.1620    -0.8270 C.ar  1 <1>  -0.1500 
  9 C       -0.2200    -1.5090    -0.6060 C.ar  1 <1>  -0.1500 
 10 C        2.0850     2.6180     0.0960 C.3   1 <1>  -0.1600 
 11 C        3.5430     2.1100    -1.8910 C.3   1 <1>  -0.1600 
 12 C       -2.8000    -0.8810     0.1770 C.ar  1 <1>  -0.1430 
 13 C       -0.8310    -2.2390     0.3970 C.ar  1 <1>  -0.1500 
 14 C        3.2210     3.1440    -0.7990 C.3   1 <1>  -0.0190 
 15 C       -2.1270    -1.9280     0.7980 C.ar  1 <1>   0.0820 
 16 C       -4.2200    -0.5200     0.5890 C.3   1 <1>  -0.0970 
 17 C        4.4550     3.5280     0.0110 C.2   1 <1>   0.5690 
 18 O       -2.7780    -2.6050     1.7790 O.3   1 <1>  -0.3630 
 19 O        4.8380     4.6720    -0.0110 O.2   1 <1>  -0.5700 
 20 N        5.0950     2.5800     0.7340 N.am  1 <1>  -0.7300 
 21 C       -2.1900    -3.7000     2.4460 C.3   1 <1>   0.0400 
 22 C        6.3400     2.7840     1.5050 C.3   1 <1>   0.2840 
 23 C        7.2880     1.6130     1.2690 C.ar  1 <1>   0.1670 
 24 N        6.8480     0.4070     1.6130 N.ar  1 <1>  -0.6200 
 25 C        8.5380     1.8500     0.7130 C.ar  1 <1>  -0.1500 
 26 C        7.6900    -0.5930     1.4030 C.ar  1 <1>   0.1600 
 27 C        9.4020     0.7970     0.4990 C.ar  1 <1>  -0.1500 
 28 C        8.9560    -0.4550     0.8590 C.ar  1 <1>  -0.1500 
 29 H        0.1240     1.7940    -0.0840 H     1 <1>   0.0800 
 30 H        0.4670     3.0430    -1.2560 H     1 <1>   0.0800 
 31 H        1.8710     2.5240    -3.1910 H     1 <1>   0.0800 
 32 H        2.5500     0.9250    -3.3610 H     1 <1>   0.0800 
 33 H       -2.6930     0.6480    -1.3090 H     1 <1>   0.1500 
 34 H        0.7840    -1.7540    -0.9090 H     1 <1>   0.1500 
 35 H        2.4210     1.7740     0.6730 H     1 <1>   0.0800 
 36 H        1.7850     3.3890     0.7840 H     1 <1>   0.0800 
 37 H        4.2510     2.5290    -2.5850 H     1 <1>   0.0800 
 38 H        3.9900     1.2330    -1.4570 H     1 <1>   0.0800 
 39 H       -0.2840    -3.0420     0.8520 H     1 <1>   0.1500 
 40 H        2.8700     4.0380    -1.2850 H     1 <1>   0.0800 
 41 H       -4.5970     0.3060     0.0150 H     1 <1>   0.0800 
 42 H       -4.2390    -0.2530     1.6310 H     1 <1>   0.0800 
 43 H       -4.8670    -1.3660     0.4390 H     1 <1>   0.0800 
 44 H        4.8050     1.5990     0.7040 H     1 <1>   0.3700 
 45 H       -2.8970    -4.0710     3.1650 H     1 <1>   0.0800 
 46 H       -1.2990    -3.3660     2.9470 H     1 <1>   0.0800 
 47 H       -1.9650    -4.4670     1.7250 H     1 <1>   0.0800 
 48 H        6.1010     2.8350     2.5520 H     1 <1>   0.0800 
 49 H        6.8050     3.7110     1.2160 H     1 <1>   0.0800 
 50 H        8.8340     2.8480     0.4470 H     1 <1>   0.1500 
 51 H        7.3550    -1.5770     1.6800 H     1 <1>   0.1500 
 52 H       10.3790     0.9470     0.0710 H     1 <1>   0.1500 
 53 H        9.5800    -1.3190     0.7210 H     1 <1>   0.1500 
@<TRIPOS>BOND
  1   1   2  2   
  2   1   3  2   
  3   1   4  am  
  4   1   5  1   
  5   4   6  1   
  6   4   7  1   
  7   5   8  ar  
  8   5   9  ar  
  9   6  10  1   
 10   6  29  1   
 11   6  30  1   
 12   7  11  1   
 13   7  31  1   
 14   7  32  1   
 15   8  12  ar  
 16   8  33  1   
 17   9  13  ar  
 18   9  34  1   
 19  10  14  1   
 20  10  35  1   
 21  10  36  1   
 22  11  14  1   
 23  11  37  1   
 24  11  38  1   
 25  12  15  ar  
 26  12  16  1   
 27  13  15  ar  
 28  13  39  1   
 29  14  17  1   
 30  14  40  1   
 31  15  18  1   
 32  16  41  1   
 33  16  42  1   
 34  16  43  1   
 35  17  19  2   
 36  17  20  am  
 37  18  21  1   
 38  20  22  1   
 39  20  44  1   
 40  21  45  1   
 41  21  46  1   
 42  21  47  1   
 43  22  23  1   
 44  22  48  1   
 45  22  49  1   
 46  23  24  ar  
 47  23  25  ar  
 48  24  26  ar  
 49  25  27  ar  
 50  25  50  1   
 51  26  28  ar  
 52  26  51  1   
 53  27  28  ar  
 54  27  52  1   
 55  28  53  1   
@<TRIPOS>SUBSTRUCTURE
  1 ****   4 GROUP 4 **** **** 0

# MOE 2024.06 (io_trps.svl 2023.06)
