@<TRIPOS>MOLECULE
1-Ethyl-1-methyl-2,3,4,9-tetrahydro-1H-beta-carboline-3-carboxylic acid
37 39 1 0 0 
SMALL
USER_CHARGES


@<TRIPOS>ATOM
  1 O       -0.1360    -0.6540     0.6690 O.co2 1 <1>  -0.9000 
  2 C        0.1260    -1.8570     0.6840 C.2   1 <1>   0.9060 
  3 O       -0.6090    -2.7230     1.1820 O.co2 1 <1>  -0.9000 
  4 C        1.4390    -2.3780     0.0870 C.3   1 <1>   0.3170 
  5 N        1.7200    -3.7860     0.5760 N.4   1 <1>  -0.9060 
  6 C        2.6370    -1.4660     0.3910 C.3   1 <1>   0.0210 
  7 C        2.7870    -4.5090    -0.0920 C.3   1 <1>   0.6830 
  8 C        3.9100    -2.2130     0.0390 C.2   1 <1>  -0.1810 
  9 C        3.9650    -3.5500    -0.1770 C.2   1 <1>  -0.3320 
 10 C        3.1430    -5.7360     0.7700 C.3   1 <1>  -0.1600 
 11 C        2.3250    -4.8970    -1.4940 C.3   1 <1>  -0.2400 
 12 C        5.2050    -1.6830    -0.1290 C.ar  1 <1>   0.0000 
 13 N        5.2530    -3.8960    -0.4960 N.pl3 1 <1>   0.0330 
 14 C        1.9820    -6.6970     1.1010 C.3   1 <1>  -0.2400 
 15 C        6.0200    -2.7590    -0.4640 C.ar  1 <1>  -0.1520 
 16 C        5.7560    -0.4010    -0.0300 C.ar  1 <1>  -0.1500 
 17 C        7.3840    -2.5770    -0.7060 C.ar  1 <1>  -0.1500 
 18 C        7.0990    -0.2230    -0.2680 C.ar  1 <1>  -0.1500 
 19 C        7.9140    -1.3110    -0.6050 C.ar  1 <1>  -0.1500 
 20 H        1.2970    -2.4020    -0.9770 H     1 <1>   0.0800 
 21 H        0.8060    -4.2610     0.5700 H     1 <1>   0.4500 
 22 H        1.9570    -3.6980     1.5630 H     1 <1>   0.4500 
 23 H        2.6420    -1.1880     1.4300 H     1 <1>   0.0800 
 24 H        2.5520    -0.5660    -0.1940 H     1 <1>   0.0800 
 25 H        3.5800    -5.3910     1.6910 H     1 <1>   0.0800 
 26 H        3.9050    -6.2980     0.2610 H     1 <1>   0.0800 
 27 H        2.1930    -4.0210    -2.1030 H     1 <1>   0.0800 
 28 H        1.4030    -5.4460    -1.4620 H     1 <1>   0.0800 
 29 H        3.0710    -5.5100    -1.9650 H     1 <1>   0.0800 
 30 H        5.6180    -4.8270    -0.7250 H     1 <1>   0.2700 
 31 H        1.2100    -6.2060     1.6690 H     1 <1>   0.0800 
 32 H        2.3510    -7.5170     1.6940 H     1 <1>   0.0800 
 33 H        1.5480    -7.1090     0.2070 H     1 <1>   0.0800 
 34 H        5.1210     0.4260     0.2290 H     1 <1>   0.1500 
 35 H        8.0060    -3.4150    -0.9650 H     1 <1>   0.1500 
 36 H        7.5390     0.7570    -0.1960 H     1 <1>   0.1500 
 37 H        8.9620    -1.1440    -0.7860 H     1 <1>   0.1500 
@<TRIPOS>BOND
  1   1   2  ar  
  2   2   3  ar  
  3   2   4  1   
  4   4   5  1   
  5   4   6  1   
  6   4  20  1   
  7   5   7  1   
  8   5  21  1   
  9   5  22  1   
 10   6   8  1   
 11   6  23  1   
 12   6  24  1   
 13   7   9  1   
 14   7  10  1   
 15   7  11  1   
 16   8   9  2   
 17   8  12  1   
 18   9  13  1   
 19  10  14  1   
 20  10  25  1   
 21  10  26  1   
 22  11  27  1   
 23  11  28  1   
 24  11  29  1   
 25  12  15  ar  
 26  12  16  ar  
 27  13  15  1   
 28  13  30  1   
 29  14  31  1   
 30  14  32  1   
 31  14  33  1   
 32  15  17  ar  
 33  16  18  ar  
 34  16  34  1   
 35  17  19  ar  
 36  17  35  1   
 37  18  19  ar  
 38  18  36  1   
 39  19  37  1   
@<TRIPOS>SUBSTRUCTURE
  1 ****   8 GROUP 4 **** **** 0

# MOE 2024.06 (io_trps.svl 2023.06)
