@<TRIPOS>MOLECULE
(3-Methoxy-propyl)-(5-morpholin-4-yl-1,2,3,4-tetrahydro-7-thia-6,9,11-triaza-ben
57 61 1 0 0 
SMALL
USER_CHARGES


@<TRIPOS>ATOM
  1 S       -0.4590    -0.1160     0.3600 S.3   1 <1>  -0.0800 
  2 C       -1.9640     0.7580     0.0500 C.ar  1 <1>   0.2970 
  3 C        0.4680     1.3890     0.3990 C.ar  1 <1>   0.0400 
  4 N       -3.0820     0.0950    -0.0990 N.ar  1 <1>  -0.5670 
  5 C       -1.7490     2.1330     0.0030 C.ar  1 <1>   0.0000 
  6 C        1.8400     1.5310     0.5990 C.ar  1 <1>   0.4100 
  7 C       -0.3590     2.4570     0.1860 C.ar  1 <1>   0.3070 
  8 C       -4.1380     0.8620    -0.3260 C.ar  1 <1>   0.4100 
  9 C       -2.8770     2.9350    -0.2140 C.ar  1 <1>  -0.1430 
 10 N        2.3770     2.7630     0.5770 N.ar  1 <1>  -0.6200 
 11 N        2.6480     0.4800     0.8160 N.pl3 1 <1>  -0.8690 
 12 N        0.2460     3.6720     0.1630 N.ar  1 <1>  -0.1250 
 13 N       -5.3310     0.1950    -0.4690 N.pl3 1 <1>  -0.8380 
 14 C       -4.0780     2.2700    -0.4000 C.ar  1 <1>  -0.1430 
 15 C       -2.7910     4.4630    -0.2540 C.3   1 <1>  -0.0170 
 16 C        1.5840     3.7750     0.3610 C.ar  1 <1>   0.5210 
 17 C        4.1180     0.4920     1.0060 C.3   1 <1>   0.2090 
 18 C       -5.4180    -0.9420    -1.4370 C.3   1 <1>   0.2090 
 19 C       -6.1610    -0.0270     0.7510 C.3   1 <1>   0.2090 
 20 C       -5.3770     3.0310    -0.6880 C.3   1 <1>  -0.0170 
 21 C       -4.1550     5.1510    -0.1620 C.3   1 <1>  -0.1600 
 22 C        4.7270    -0.6290     0.1700 C.3   1 <1>  -0.1600 
 23 C       -5.2640    -2.3040    -0.7330 C.3   1 <1>   0.1200 
 24 C       -5.9450    -1.4390     1.3270 C.3   1 <1>   0.1200 
 25 C       -5.1490     4.4840    -1.1100 C.3   1 <1>  -0.1600 
 26 C        6.2460    -0.6570     0.3170 C.3   1 <1>   0.1200 
 27 O       -6.1510    -2.4170     0.3460 O.3   1 <1>  -0.5600 
 28 O        6.7180    -1.7130    -0.4480 O.3   1 <1>  -0.5600 
 29 C        8.1010    -1.8560    -0.4260 C.3   1 <1>   0.0400 
 30 H        2.2480    -0.4660     0.8450 H     1 <1>   0.4000 
 31 H       -0.3110     4.5080    -0.0100 H     1 <1>   0.4570 
 32 H       -2.3270     4.7570    -1.1800 H     1 <1>   0.0800 
 33 H       -2.2030     4.8230     0.5700 H     1 <1>   0.0800 
 34 H        2.0230     4.7610     0.3370 H     1 <1>   0.1500 
 35 H        4.3420     0.3390     2.0490 H     1 <1>   0.0800 
 36 H        4.5310     1.4390     0.7020 H     1 <1>   0.0800 
 37 H       -4.6510    -0.8410    -2.1860 H     1 <1>   0.0800 
 38 H       -6.3710    -0.9090    -1.9350 H     1 <1>   0.0800 
 39 H       -7.2000     0.0980     0.5010 H     1 <1>   0.0800 
 40 H       -5.9080     0.7030     1.5000 H     1 <1>   0.0800 
 41 H       -5.9850     3.0110     0.1990 H     1 <1>   0.0800 
 42 H       -5.9260     2.5350    -1.4700 H     1 <1>   0.0800 
 43 H       -4.0580     6.1940    -0.4110 H     1 <1>   0.0800 
 44 H       -4.5290     5.0840     0.8460 H     1 <1>   0.0800 
 45 H        4.4820    -0.4740    -0.8660 H     1 <1>   0.0800 
 46 H        4.3310    -1.5750     0.4940 H     1 <1>   0.0800 
 47 H       -4.2590    -2.4240    -0.3670 H     1 <1>   0.0800 
 48 H       -5.4780    -3.1030    -1.4200 H     1 <1>   0.0800 
 49 H       -6.6400    -1.6240     2.1260 H     1 <1>   0.0800 
 50 H       -4.9430    -1.5380     1.7070 H     1 <1>   0.0800 
 51 H       -6.0870     5.0120    -1.0950 H     1 <1>   0.0800 
 52 H       -4.7690     4.5110    -2.1170 H     1 <1>   0.0800 
 53 H        6.5300    -0.8220     1.3430 H     1 <1>   0.0800 
 54 H        6.6830     0.2570    -0.0470 H     1 <1>   0.0800 
 55 H        8.3600    -2.6970    -1.0450 H     1 <1>   0.0800 
 56 H        8.4240    -2.0360     0.5850 H     1 <1>   0.0800 
 57 H        8.5580    -0.9630    -0.8180 H     1 <1>   0.0800 
@<TRIPOS>BOND
  1   1   2  1   
  2   1   3  1   
  3   2   4  ar  
  4   2   5  ar  
  5   3   6  ar  
  6   3   7  ar  
  7   4   8  ar  
  8   5   7  1   
  9   5   9  ar  
 10   6  10  ar  
 11   6  11  1   
 12   7  12  ar  
 13   8  13  1   
 14   8  14  ar  
 15   9  14  ar  
 16   9  15  1   
 17  10  16  ar  
 18  11  17  1   
 19  11  30  1   
 20  12  16  ar  
 21  12  31  1   
 22  13  18  1   
 23  13  19  1   
 24  14  20  1   
 25  15  21  1   
 26  15  32  1   
 27  15  33  1   
 28  16  34  1   
 29  17  22  1   
 30  17  35  1   
 31  17  36  1   
 32  18  23  1   
 33  18  37  1   
 34  18  38  1   
 35  19  24  1   
 36  19  39  1   
 37  19  40  1   
 38  20  25  1   
 39  20  41  1   
 40  20  42  1   
 41  21  25  1   
 42  21  43  1   
 43  21  44  1   
 44  22  26  1   
 45  22  45  1   
 46  22  46  1   
 47  23  27  1   
 48  23  47  1   
 49  23  48  1   
 50  24  27  1   
 51  24  49  1   
 52  24  50  1   
 53  25  51  1   
 54  25  52  1   
 55  26  28  1   
 56  26  53  1   
 57  26  54  1   
 58  28  29  1   
 59  29  55  1   
 60  29  56  1   
 61  29  57  1   
@<TRIPOS>SUBSTRUCTURE
  1 ****   2 GROUP 4 **** **** 0

# MOE 2024.06 (io_trps.svl 2023.06)
