@<TRIPOS>MOLECULE
3-[3-(4-tert-Butyl-phenyl)-[1,2,4]oxadiazol-5-yl]-N-methyl-propionamide
42 43 1 0 0 
SMALL
USER_CHARGES


@<TRIPOS>ATOM
  1 O        0.2550    -0.4980     0.0430 O.2   1 <1>  -0.5700 
  2 C        0.6280    -1.5780    -0.3390 C.2   1 <1>   0.5690 
  3 N        1.7890    -1.6730    -1.0280 N.am  1 <1>  -0.7300 
  4 C       -0.1980    -2.8160    -0.0410 C.3   1 <1>  -0.0990 
  5 C        2.4670    -2.8720    -1.5840 C.3   1 <1>   0.0600 
  6 C       -1.5270    -2.5000     0.6640 C.3   1 <1>   0.0200 
  7 C       -2.3120    -3.7660     0.9370 C.2   1 <1>   0.2980 
  8 O       -1.8740    -4.5910     1.8520 O.3   1 <1>  -0.0190 
  9 N       -3.3750    -4.1210     0.3470 N.2   1 <1>  -0.5650 
 10 N       -2.7360    -5.5580     1.8410 N.2   1 <1>  -0.4100 
 11 C       -3.6280    -5.2850     0.9550 C.2   1 <1>   0.4620 
 12 C       -4.7790    -6.1100     0.6260 C.ar  1 <1>   0.0540 
 13 C       -5.0050    -7.3290     1.2630 C.ar  1 <1>  -0.1500 
 14 C       -5.7100    -5.7280    -0.3380 C.ar  1 <1>  -0.1500 
 15 C       -6.0960    -8.1220     0.9560 C.ar  1 <1>  -0.1500 
 16 C       -6.8010    -6.5190    -0.6470 C.ar  1 <1>  -0.1500 
 17 C       -7.0210    -7.7340    -0.0090 C.ar  1 <1>  -0.1430 
 18 C       -8.2540    -8.5820    -0.3880 C.3   1 <1>   0.1430 
 19 C       -9.5340    -7.7780    -0.1160 C.3   1 <1>  -0.2400 
 20 C       -8.1880    -8.9470    -1.8790 C.3   1 <1>  -0.2400 
 21 C       -8.3530    -9.8950     0.4070 C.3   1 <1>  -0.2400 
 22 H        2.2670    -0.7800    -1.1790 H     1 <1>   0.3700 
 23 H        0.3860    -3.4710     0.5790 H     1 <1>   0.0800 
 24 H       -0.4080    -3.3190    -0.9670 H     1 <1>   0.0800 
 25 H        1.9250    -3.7710    -1.3460 H     1 <1>   0.0800 
 26 H        3.4590    -2.9480    -1.1730 H     1 <1>   0.0800 
 27 H        2.5380    -2.7830    -2.6550 H     1 <1>   0.0800 
 28 H       -2.1170    -1.8480     0.0440 H     1 <1>   0.0800 
 29 H       -1.3420    -1.9950     1.5960 H     1 <1>   0.0800 
 30 H       -4.3130    -7.6650     2.0150 H     1 <1>   0.1500 
 31 H       -5.5780    -4.7950    -0.8570 H     1 <1>   0.1500 
 32 H       -6.2000    -9.0470     1.4900 H     1 <1>   0.1500 
 33 H       -7.4850    -6.1710    -1.4000 H     1 <1>   0.1500 
 34 H       -9.5720    -7.4880     0.9190 H     1 <1>   0.0800 
 35 H      -10.4070    -8.3650    -0.3390 H     1 <1>   0.0800 
 36 H       -9.5680    -6.8880    -0.7160 H     1 <1>   0.0800 
 37 H       -8.2100    -8.0680    -2.4950 H     1 <1>   0.0800 
 38 H       -9.0200    -9.5690    -2.1550 H     1 <1>   0.0800 
 39 H       -7.2770    -9.4810    -2.0850 H     1 <1>   0.0800 
 40 H       -7.4890   -10.5100     0.2290 H     1 <1>   0.0800 
 41 H       -9.2240   -10.4520     0.1110 H     1 <1>   0.0800 
 42 H       -8.4300    -9.6940     1.4610 H     1 <1>   0.0800 
@<TRIPOS>BOND
  1   1   2  2   
  2   2   3  am  
  3   2   4  1   
  4   3   5  1   
  5   3  22  1   
  6   4   6  1   
  7   4  23  1   
  8   4  24  1   
  9   5  25  1   
 10   5  26  1   
 11   5  27  1   
 12   6   7  1   
 13   6  28  1   
 14   6  29  1   
 15   7   8  1   
 16   7   9  2   
 17   8  10  1   
 18   9  11  1   
 19  10  11  2   
 20  11  12  1   
 21  12  13  ar  
 22  12  14  ar  
 23  13  15  ar  
 24  13  30  1   
 25  14  16  ar  
 26  14  31  1   
 27  15  17  ar  
 28  15  32  1   
 29  16  17  ar  
 30  16  33  1   
 31  17  18  1   
 32  18  19  1   
 33  18  20  1   
 34  18  21  1   
 35  19  34  1   
 36  19  35  1   
 37  19  36  1   
 38  20  37  1   
 39  20  38  1   
 40  20  39  1   
 41  21  40  1   
 42  21  41  1   
 43  21  42  1   
@<TRIPOS>SUBSTRUCTURE
  1 ****  11 GROUP 4 **** **** 0

# MOE 2024.06 (io_trps.svl 2023.06)
