@<TRIPOS>MOLECULE
1-(3-Chloro-phenyl)-5-oxo-pyrrolidine-3-carboxylic acid cyclohexylamide
43 45 1 0 0 
SMALL
USER_CHARGES


@<TRIPOS>ATOM
  1 CL       0.9820    -0.0460    -0.0380 Cl    1 <1>  -0.1770 
  2 C       -0.1070     1.2510     0.3840 C.ar  1 <1>   0.1770 
  3 C        0.1900     2.5380    -0.0170 C.ar  1 <1>  -0.1500 
  4 C       -1.2450     0.9640     1.1130 C.ar  1 <1>  -0.1500 
  5 C       -0.6650     3.5860     0.3130 C.ar  1 <1>   0.1170 
  6 C       -2.1050     1.9960     1.4440 C.ar  1 <1>  -0.1500 
  7 N       -0.3700     4.9070    -0.0770 N.am  1 <1>  -0.4770 
  8 C       -1.8130     3.2900     1.0460 C.ar  1 <1>  -0.1500 
  9 C       -1.2350     5.9010    -0.4380 C.2   1 <1>   0.5690 
 10 C        1.0230     5.4030    -0.1240 C.3   1 <1>   0.1400 
 11 O       -2.4370     5.8290    -0.5090 O.2   1 <1>  -0.5700 
 12 C       -0.5070     7.1780    -0.7470 C.3   1 <1>  -0.0990 
 13 C        0.8870     6.9330    -0.1520 C.3   1 <1>  -0.0190 
 14 C        2.0040     7.6470    -0.9050 C.2   1 <1>   0.5690 
 15 O        2.7710     7.0080    -1.5780 O.2   1 <1>  -0.5700 
 16 N        2.1530     8.9890    -0.8350 N.am  1 <1>  -0.7300 
 17 C        1.3700     9.9940    -0.0960 C.3   1 <1>   0.2200 
 18 C        0.5950    10.8550    -1.0980 C.3   1 <1>  -0.1600 
 19 C        2.3250    10.8460     0.7450 C.3   1 <1>  -0.1600 
 20 C       -0.1680    11.9800    -0.3830 C.3   1 <1>  -0.1600 
 21 C        1.5690    11.9710     1.4660 C.3   1 <1>  -0.1600 
 22 C        0.7770    12.8330     0.4730 C.3   1 <1>  -0.1600 
 23 H        1.0800     2.7110    -0.5900 H     1 <1>   0.1500 
 24 H       -1.4520    -0.0480     1.4120 H     1 <1>   0.1500 
 25 H       -3.0000     1.7960     2.0080 H     1 <1>   0.1500 
 26 H       -2.4900     4.0840     1.3090 H     1 <1>   0.1500 
 27 H        1.4880     5.0320    -1.0220 H     1 <1>   0.0800 
 28 H        1.5800     5.0740     0.7360 H     1 <1>   0.0800 
 29 H       -1.0020     8.0190    -0.2970 H     1 <1>   0.0800 
 30 H       -0.4620     7.3010    -1.8140 H     1 <1>   0.0800 
 31 H        0.8970     7.2670     0.8690 H     1 <1>   0.0800 
 32 H        2.9220     9.3700    -1.3900 H     1 <1>   0.3700 
 33 H        0.6700     9.5120     0.5640 H     1 <1>   0.0800 
 34 H       -0.1020    10.2410    -1.6390 H     1 <1>   0.0800 
 35 H        1.2810    11.2920    -1.8030 H     1 <1>   0.0800 
 36 H        3.0750    11.2820     0.1080 H     1 <1>   0.0800 
 37 H        2.8160    10.2240     1.4730 H     1 <1>   0.0800 
 38 H       -0.9310    11.5530     0.2460 H     1 <1>   0.0800 
 39 H       -0.6560    12.6040    -1.1120 H     1 <1>   0.0800 
 40 H        2.2690    12.5900     2.0020 H     1 <1>   0.0800 
 41 H        0.8910    11.5440     2.1860 H     1 <1>   0.0800 
 42 H        0.2080    13.5720     1.0110 H     1 <1>   0.0800 
 43 H        1.4650    13.3560    -0.1700 H     1 <1>   0.0800 
@<TRIPOS>BOND
  1   1   2  1   
  2   2   3  ar  
  3   2   4  ar  
  4   3   5  ar  
  5   3  23  1   
  6   4   6  ar  
  7   4  24  1   
  8   5   7  1   
  9   5   8  ar  
 10   6   8  ar  
 11   6  25  1   
 12   7   9  am  
 13   7  10  1   
 14   8  26  1   
 15   9  11  2   
 16   9  12  1   
 17  10  13  1   
 18  10  27  1   
 19  10  28  1   
 20  12  13  1   
 21  12  29  1   
 22  12  30  1   
 23  13  14  1   
 24  13  31  1   
 25  14  15  2   
 26  14  16  am  
 27  16  17  1   
 28  16  32  1   
 29  17  18  1   
 30  17  19  1   
 31  17  33  1   
 32  18  20  1   
 33  18  34  1   
 34  18  35  1   
 35  19  21  1   
 36  19  36  1   
 37  19  37  1   
 38  20  22  1   
 39  20  38  1   
 40  20  39  1   
 41  21  22  1   
 42  21  40  1   
 43  21  41  1   
 44  22  42  1   
 45  22  43  1   
@<TRIPOS>SUBSTRUCTURE
  1 ****  13 GROUP 4 **** **** 0

# MOE 2024.06 (io_trps.svl 2023.06)
