@<TRIPOS>MOLECULE
2-Methoxy-6-methyl-3-(5-methyl-[1,2,4]oxadiazol-3-yl)-pyridine
26 27 1 0 0 
SMALL
USER_CHARGES


@<TRIPOS>ATOM
  1 O       -0.4130     0.5820     1.2940 O.3   1 <1>  -0.0190 
  2 N       -1.2370    -0.4180     1.3040 N.2   1 <1>  -0.4100 
  3 C       -0.9860     1.4570     0.5100 C.2   1 <1>   0.2980 
  4 C       -2.2290    -0.1180     0.5420 C.2   1 <1>   0.4620 
  5 N       -2.0990     1.1060     0.0190 N.2   1 <1>  -0.5650 
  6 C       -0.2920     2.7770     0.2650 C.3   1 <1>  -0.0600 
  7 C       -3.3930    -0.9330     0.2730 C.ar  1 <1>   0.0540 
  8 C       -3.3060    -2.2930    -0.0520 C.ar  1 <1>   0.3920 
  9 C       -4.6620    -0.3750     0.3270 C.ar  1 <1>  -0.1500 
 10 O       -2.0760    -2.8460    -0.1520 O.3   1 <1>  -0.3630 
 11 N       -4.3510    -3.0870    -0.2880 N.ar  1 <1>  -0.6200 
 12 C       -5.7460    -1.1870     0.0790 C.ar  1 <1>  -0.1500 
 13 C       -1.8940    -4.2150    -0.4550 C.3   1 <1>   0.0400 
 14 C       -5.5410    -2.5230    -0.2180 C.ar  1 <1>   0.1670 
 15 C       -6.7190    -3.4340    -0.4900 C.3   1 <1>  -0.0970 
 16 H        0.6690     2.6020    -0.1830 H     1 <1>   0.0800 
 17 H       -0.1610     3.2960     1.1960 H     1 <1>   0.0800 
 18 H       -0.8830     3.3830    -0.3970 H     1 <1>   0.0800 
 19 H       -4.7910     0.6680     0.5600 H     1 <1>   0.1500 
 20 H       -6.7410    -0.7820     0.1170 H     1 <1>   0.1500 
 21 H       -0.8400    -4.4200    -0.4700 H     1 <1>   0.0800 
 22 H       -2.3260    -4.4170    -1.4200 H     1 <1>   0.0800 
 23 H       -2.3770    -4.8040     0.3040 H     1 <1>   0.0800 
 24 H       -6.6330    -3.8450    -1.4790 H     1 <1>   0.0800 
 25 H       -7.6490    -2.9020    -0.4130 H     1 <1>   0.0800 
 26 H       -6.7200    -4.2400     0.2210 H     1 <1>   0.0800 
@<TRIPOS>BOND
  1   1   2  1   
  2   1   3  1   
  3   2   4  2   
  4   3   5  2   
  5   3   6  1   
  6   4   5  1   
  7   4   7  1   
  8   6  16  1   
  9   6  17  1   
 10   6  18  1   
 11   7   8  ar  
 12   7   9  ar  
 13   8  10  1   
 14   8  11  ar  
 15   9  12  ar  
 16   9  19  1   
 17  10  13  1   
 18  11  14  ar  
 19  12  14  ar  
 20  12  20  1   
 21  13  21  1   
 22  13  22  1   
 23  13  23  1   
 24  14  15  1   
 25  15  24  1   
 26  15  25  1   
 27  15  26  1   
@<TRIPOS>SUBSTRUCTURE
  1 ****   7 GROUP 4 **** **** 0

# MOE 2024.06 (io_trps.svl 2023.06)
