@<TRIPOS>MOLECULE
8-Dimethylamino-7-(2-hydroxy-3-phenoxy-propyl)-1,3-dimethyl-3,7-dihydro-purine-2
51 53 1 0 0 
SMALL
USER_CHARGES


@<TRIPOS>ATOM
  1 O        1.2110     1.0550     1.1690 O.2   1 <1>  -0.5740 
  2 C        2.2490     1.3980     0.6400 C.2   1 <1>   0.6860 
  3 N        2.3220     2.6150    -0.0290 N.am  1 <1>  -0.4260 
  4 N        3.3590     0.5670     0.6920 N.am  1 <1>  -0.4410 
  5 C        3.4670     2.9900    -0.7210 C.2   1 <1>   0.6990 
  6 C        1.1240     3.5120    -0.0350 C.3   1 <1>   0.0520 
  7 C        4.4970     0.9630     0.0150 C.2   1 <1>   0.4210 
  8 C        3.3180    -0.7230     1.4430 C.3   1 <1>   0.0520 
  9 O        3.4900     4.0340    -1.3530 O.2   1 <1>  -0.5740 
 10 C        4.6000     2.1110    -0.6850 C.2   1 <1>   0.2710 
 11 N        5.6790     0.3000    -0.0630 N.pl3 1 <1>  -0.7040 
 12 N        5.9110     2.1440    -1.2120 N.pl3 1 <1>  -0.7670 
 13 C        6.5260     1.0300    -0.7890 C.cat 1 <1>   1.0690 
 14 C        6.5580     3.4480    -1.5690 C.3   1 <1>   0.3480 
 15 N        7.8040     0.6440    -1.0290 N.pl3 1 <1>  -0.5960 
 16 C        7.3750     4.0370    -0.3920 C.3   1 <1>   0.1930 
 17 C        8.5940     1.0680    -2.2200 C.3   1 <1>   0.0800 
 18 C        8.5270    -0.3480    -0.1790 C.3   1 <1>   0.0800 
 19 O        6.7910     3.7200     0.8360 O.3   1 <1>  -0.6840 
 20 C        7.5170     5.5610    -0.4860 C.3   1 <1>   0.1130 
 21 O        8.1990     6.0160     0.6640 O.3   1 <1>  -0.3680 
 22 C        8.5150     7.3260     0.8200 C.ar  1 <1>   0.0750 
 23 C        9.2810     7.6560     1.9270 C.ar  1 <1>  -0.1570 
 24 C        8.1160     8.3290    -0.0600 C.ar  1 <1>  -0.1570 
 25 C        9.6520     8.9690     2.1580 C.ar  1 <1>  -0.1570 
 26 C        8.4890     9.6420     0.1730 C.ar  1 <1>  -0.1570 
 27 C        9.2560     9.9630     1.2800 C.ar  1 <1>  -0.1570 
 28 H        0.4690     3.2320    -0.8410 H     1 <1>   0.0720 
 29 H        1.4160     4.5410    -0.1610 H     1 <1>   0.0720 
 30 H        0.5880     3.4290     0.8940 H     1 <1>   0.0720 
 31 H        2.5010    -0.7290     2.1450 H     1 <1>   0.0720 
 32 H        4.2300    -0.8610     1.9960 H     1 <1>   0.0720 
 33 H        3.1840    -1.5390     0.7560 H     1 <1>   0.0720 
 34 H        5.9050    -0.5950     0.3540 H     1 <1>   0.4450 
 35 H        5.8060     4.1590    -1.8570 H     1 <1>   0.0720 
 36 H        7.1950     3.3320    -2.4250 H     1 <1>   0.0720 
 37 H        8.3590     3.6030    -0.3970 H     1 <1>   0.0720 
 38 H        7.9420     1.3910    -3.0140 H     1 <1>   0.0720 
 39 H        9.1750     0.2400    -2.5910 H     1 <1>   0.0720 
 40 H        9.2650     1.8660    -1.9540 H     1 <1>   0.0720 
 41 H        8.0540    -0.4570     0.7820 H     1 <1>   0.0720 
 42 H        9.5390    -0.0170    -0.0120 H     1 <1>   0.0720 
 43 H        8.5550    -1.3060    -0.6720 H     1 <1>   0.0720 
 44 H        7.1600     4.3370     1.5110 H     1 <1>   0.3940 
 45 H        6.5500     6.0330    -0.5190 H     1 <1>   0.0720 
 46 H        8.0920     5.8380    -1.3520 H     1 <1>   0.0720 
 47 H        9.5870     6.8820     2.6070 H     1 <1>   0.1430 
 48 H        7.5190     8.1170    -0.9250 H     1 <1>   0.1430 
 49 H       10.2480     9.2170     3.0190 H     1 <1>   0.1430 
 50 H        8.1810    10.4170    -0.5060 H     1 <1>   0.1430 
 51 H        9.5450    10.9840     1.4580 H     1 <1>   0.1430 
@<TRIPOS>BOND
  1   1   2  2   
  2   2   3  am  
  3   2   4  am  
  4   3   5  am  
  5   3   6  1   
  6   4   7  1   
  7   4   8  1   
  8   5   9  2   
  9   5  10  1   
 10   6  28  1   
 11   6  29  1   
 12   6  30  1   
 13   7  10  2   
 14   7  11  1   
 15   8  31  1   
 16   8  32  1   
 17   8  33  1   
 18  10  12  1   
 19  11  13  ar  
 20  11  34  1   
 21  12  13  ar  
 22  12  14  1   
 23  13  15  ar  
 24  14  16  1   
 25  14  35  1   
 26  14  36  1   
 27  15  17  1   
 28  15  18  1   
 29  16  19  1   
 30  16  20  1   
 31  16  37  1   
 32  17  38  1   
 33  17  39  1   
 34  17  40  1   
 35  18  41  1   
 36  18  42  1   
 37  18  43  1   
 38  19  44  1   
 39  20  21  1   
 40  20  45  1   
 41  20  46  1   
 42  21  22  1   
 43  22  23  ar  
 44  22  24  ar  
 45  23  25  ar  
 46  23  47  1   
 47  24  26  ar  
 48  24  48  1   
 49  25  27  ar  
 50  25  49  1   
 51  26  27  ar  
 52  26  50  1   
 53  27  51  1   
@<TRIPOS>SUBSTRUCTURE
  1 ****  19 GROUP 4 **** **** 0

# MOE 2024.06 (io_trps.svl 2023.06)
