@<TRIPOS>MOLECULE
[5-Methyl-2-(2-methyl-benzylamino)-7-oxo-4,7-dihydro-[1,2,4]triazolo[1,5-a]pyrim
44 46 1 0 0 
SMALL
USER_CHARGES


@<TRIPOS>ATOM
  1 O       -0.4040    -1.0920    -1.7390 O.2   1 <1>  -0.5700 
  2 C        0.0140    -2.0370    -1.0790 C.2   1 <1>   0.5650 
  3 N       -0.7380    -3.2230    -0.9320 N.pl3 1 <1>   0.5610 
  4 C        1.3000    -1.9830    -0.4330 C.2   1 <1>  -0.1240 
  5 N       -1.9570    -3.6070    -1.3940 N.2   1 <1>  -0.7070 
  6 C       -0.2430    -4.2610    -0.2190 C.2   1 <1>   0.2700 
  7 C        1.7590    -3.0430     0.3000 C.2   1 <1>  -0.0380 
  8 C        2.0820    -0.6730    -0.6100 C.3   1 <1>   0.0390 
  9 C       -2.0520    -4.7970    -0.9310 C.2   1 <1>   0.5990 
 10 N       -1.0400    -5.2620    -0.1880 N.2   1 <1>  -0.5650 
 11 N        0.9960    -4.1830     0.3890 N.pl3 1 <1>  -0.5840 
 12 C        3.0650    -3.1100     1.0770 C.3   1 <1>  -0.1020 
 13 C        1.5700     0.4260     0.3020 C.2   1 <1>   0.6590 
 14 N       -3.1570    -5.5480    -1.1890 N.pl3 1 <1>  -0.8520 
 15 O        1.0020     0.1860     1.3370 O.2   1 <1>  -0.5700 
 16 O        1.8110     1.6680    -0.1000 O.3   1 <1>  -0.4300 
 17 C       -3.8070    -6.1420    -0.0090 C.3   1 <1>   0.3530 
 18 C        1.3760     2.7860     0.6470 C.3   1 <1>   0.0400 
 19 C       -5.2990    -5.8470    -0.0880 C.ar  1 <1>  -0.1430 
 20 C       -5.8460    -4.6520     0.3770 C.ar  1 <1>  -0.1430 
 21 C       -6.1310    -6.8060    -0.6480 C.ar  1 <1>  -0.1500 
 22 C       -7.2150    -4.4470     0.2810 C.ar  1 <1>  -0.1500 
 23 C       -4.9830    -3.5540     0.9850 C.3   1 <1>  -0.0970 
 24 C       -7.4940    -6.5920    -0.7400 C.ar  1 <1>  -0.1500 
 25 C       -8.0370    -5.4110    -0.2730 C.ar  1 <1>  -0.1500 
 26 H        1.9980    -0.3360    -1.6270 H     1 <1>   0.0800 
 27 H        3.1270    -0.8070    -0.4230 H     1 <1>   0.0800 
 28 H        1.2960    -5.0090     0.9200 H     1 <1>   0.4000 
 29 H        3.7770    -3.7140     0.5450 H     1 <1>   0.0800 
 30 H        2.8920    -3.5530     2.0420 H     1 <1>   0.0800 
 31 H        3.4900    -2.1400     1.2490 H     1 <1>   0.0800 
 32 H       -3.8330    -4.9360    -1.6500 H     1 <1>   0.4000 
 33 H       -3.3940    -5.7460     0.9030 H     1 <1>   0.0800 
 34 H       -3.6350    -7.2040    -0.0150 H     1 <1>   0.0800 
 35 H        1.6770     3.6790     0.1300 H     1 <1>   0.0800 
 36 H        1.8280     2.7510     1.6230 H     1 <1>   0.0800 
 37 H        0.3040     2.7500     0.7320 H     1 <1>   0.0800 
 38 H       -5.7170    -7.7260    -1.0210 H     1 <1>   0.1500 
 39 H       -7.6510    -3.5300     0.6360 H     1 <1>   0.1500 
 40 H       -4.2600    -3.2110     0.2670 H     1 <1>   0.0800 
 41 H       -4.4680    -3.9210     1.8550 H     1 <1>   0.0800 
 42 H       -5.5810    -2.7120     1.2810 H     1 <1>   0.0800 
 43 H       -8.1300    -7.3430    -1.1750 H     1 <1>   0.1500 
 44 H       -9.0970    -5.2400    -0.3420 H     1 <1>   0.1500 
@<TRIPOS>BOND
  1   1   2  2   
  2   2   3  1   
  3   2   4  1   
  4   3   5  1   
  5   3   6  1   
  6   4   7  2   
  7   4   8  1   
  8   5   9  2   
  9   6  10  2   
 10   6  11  1   
 11   7  11  1   
 12   7  12  1   
 13   8  13  1   
 14   8  26  1   
 15   8  27  1   
 16   9  10  1   
 17   9  14  1   
 18  11  28  1   
 19  12  29  1   
 20  12  30  1   
 21  12  31  1   
 22  13  15  2   
 23  13  16  1   
 24  14  17  1   
 25  14  32  1   
 26  16  18  1   
 27  17  19  1   
 28  17  33  1   
 29  17  34  1   
 30  18  35  1   
 31  18  36  1   
 32  18  37  1   
 33  19  20  ar  
 34  19  21  ar  
 35  20  22  ar  
 36  20  23  1   
 37  21  24  ar  
 38  21  38  1   
 39  22  25  ar  
 40  22  39  1   
 41  23  40  1   
 42  23  41  1   
 43  23  42  1   
 44  24  25  ar  
 45  24  43  1   
 46  25  44  1   
@<TRIPOS>SUBSTRUCTURE
  1 ****   3 GROUP 4 **** **** 0

# MOE 2024.06 (io_trps.svl 2023.06)
