@<TRIPOS>MOLECULE
2-p-Tolyloxy-ethylamine
25 25 1 0 0 
SMALL
USER_CHARGES


@<TRIPOS>ATOM
  1 O       -0.1810     0.3850     0.3950 O.3   1 <1>  -0.3630 
  2 C       -1.4790     0.7580     0.2730 C.ar  1 <1>   0.0830 
  3 C        0.8690     1.2700     0.0600 C.3   1 <1>   0.1200 
  4 C       -1.8870     2.0030    -0.2000 C.ar  1 <1>  -0.1500 
  5 C       -2.4350    -0.1750     0.6430 C.ar  1 <1>  -0.1500 
  6 C        2.1950     0.5290     0.2660 C.3   1 <1>   0.3430 
  7 C       -3.2360     2.2960    -0.2990 C.ar  1 <1>  -0.1500 
  8 C       -3.7820     0.1240     0.5420 C.ar  1 <1>  -0.1500 
  9 N        2.0710    -0.8740    -0.2200 N.4   1 <1>  -0.8530 
 10 C       -4.1890     1.3610     0.0700 C.ar  1 <1>  -0.1430 
 11 C       -5.6670     1.6890    -0.0430 C.3   1 <1>  -0.0970 
 12 H        0.8110     2.1380     0.6950 H     1 <1>   0.0800 
 13 H        0.7540     1.5640    -0.9700 H     1 <1>   0.0800 
 14 H       -1.1850     2.7590    -0.4940 H     1 <1>   0.1500 
 15 H       -2.1320    -1.1360     1.0140 H     1 <1>   0.1500 
 16 H        2.4190     0.5270     1.3210 H     1 <1>   0.0800 
 17 H        2.9940     1.0440    -0.2440 H     1 <1>   0.0800 
 18 H       -3.5450     3.2590    -0.6670 H     1 <1>   0.1500 
 19 H       -4.5140    -0.6100     0.8310 H     1 <1>   0.1500 
 20 H        1.1620    -1.2300     0.1180 H     1 <1>   0.4500 
 21 H        2.8170    -1.4830     0.1310 H     1 <1>   0.4500 
 22 H        2.0430    -0.9210    -1.2440 H     1 <1>   0.4500 
 23 H       -5.8310     2.7420     0.0960 H     1 <1>   0.0800 
 24 H       -6.2280     1.1580     0.7050 H     1 <1>   0.0800 
 25 H       -6.0290     1.4050    -1.0150 H     1 <1>   0.0800 
@<TRIPOS>BOND
  1   1   2  1   
  2   1   3  1   
  3   2   4  ar  
  4   2   5  ar  
  5   3   6  1   
  6   3  12  1   
  7   3  13  1   
  8   4   7  ar  
  9   4  14  1   
 10   5   8  ar  
 11   5  15  1   
 12   6   9  1   
 13   6  16  1   
 14   6  17  1   
 15   7  10  ar  
 16   7  18  1   
 17   8  10  ar  
 18   8  19  1   
 19   9  20  1   
 20   9  21  1   
 21   9  22  1   
 22  10  11  1   
 23  11  23  1   
 24  11  24  1   
 25  11  25  1   
@<TRIPOS>SUBSTRUCTURE
  1 ****   2 GROUP 4 **** **** 0

# MOE 2024.06 (io_trps.svl 2023.06)
