@<TRIPOS>MOLECULE
N-[2-(4-Methanesulfonyl-piperazin-1-yl)-phenyl]-2-(4-methoxy-phenoxy)-acetamide
54 56 1 0 0 
SMALL
USER_CHARGES


@<TRIPOS>ATOM
  1 S        1.4990     0.3070    -0.1330 S.o2  1 <1>   1.3330 
  2 O        2.2970     0.5030    -1.3210 O.2   1 <1>  -0.6500 
  3 O        2.1350     0.3080     1.1640 O.2   1 <1>  -0.6500 
  4 N        0.2500     1.4500    -0.1290 N.am  1 <1>  -0.8490 
  5 C        0.6000    -1.2200    -0.2950 C.3   1 <1>  -0.1350 
  6 C       -0.0210     2.0010    -1.4740 C.3   1 <1>   0.1960 
  7 C        0.4930     2.5500     0.8300 C.3   1 <1>   0.1960 
  8 C       -1.1990     2.9930    -1.4790 C.3   1 <1>   0.2090 
  9 C       -0.6640     3.5700     0.8660 C.3   1 <1>   0.2090 
 10 N       -0.9740     4.0980    -0.4980 N.pl3 1 <1>  -0.8380 
 11 C       -1.8820     5.1740    -0.5400 C.ar  1 <1>   0.1000 
 12 C       -1.4060     6.4880    -0.6630 C.ar  1 <1>   0.1170 
 13 C       -3.2520     4.9590    -0.4520 C.ar  1 <1>  -0.1500 
 14 N       -0.0140     6.6540    -0.7220 N.am  1 <1>  -0.5470 
 15 C       -2.3070     7.5430    -0.7130 C.ar  1 <1>  -0.1500 
 16 C       -4.1430     6.0180    -0.5000 C.ar  1 <1>  -0.1500 
 17 C        0.8230     7.7270    -0.6270 C.2   1 <1>   0.5690 
 18 C       -3.6700     7.3110    -0.6330 C.ar  1 <1>  -0.1500 
 19 O        0.4500     8.8760    -0.6220 O.2   1 <1>  -0.5700 
 20 C        2.3100     7.4520    -0.4600 C.3   1 <1>   0.1810 
 21 O        2.6660     6.2010    -1.0430 O.3   1 <1>  -0.3630 
 22 C        3.5210     5.3450    -0.4280 C.ar  1 <1>   0.0820 
 23 C        3.4720     4.0230    -0.8370 C.ar  1 <1>  -0.1500 
 24 C        4.4120     5.7200     0.5750 C.ar  1 <1>  -0.1500 
 25 C        4.2640     3.0670    -0.2270 C.ar  1 <1>  -0.1500 
 26 C        5.2020     4.7630     1.1870 C.ar  1 <1>  -0.1500 
 27 C        5.1230     3.4330     0.8040 C.ar  1 <1>   0.0820 
 28 O        5.9050     2.5500     1.4770 O.3   1 <1>  -0.3620 
 29 C        5.6380     1.1650     1.4000 C.3   1 <1>   0.0400 
 30 H        0.0410    -1.2270    -1.2090 H     1 <1>   0.0800 
 31 H       -0.0770    -1.3360     0.5280 H     1 <1>   0.0800 
 32 H        1.2820    -2.0470    -0.3010 H     1 <1>   0.0800 
 33 H       -0.2440     1.1970    -2.1540 H     1 <1>   0.0800 
 34 H        0.8520     2.5110    -1.8450 H     1 <1>   0.0800 
 35 H        1.4040     3.0630     0.5770 H     1 <1>   0.0800 
 36 H        0.6120     2.1450     1.8200 H     1 <1>   0.0800 
 37 H       -2.1020     2.4630    -1.2330 H     1 <1>   0.0800 
 38 H       -1.3100     3.4130    -2.4630 H     1 <1>   0.0800 
 39 H       -0.3960     4.3900     1.5100 H     1 <1>   0.0800 
 40 H       -1.5400     3.0980     1.2750 H     1 <1>   0.0800 
 41 H       -3.6270     3.9600    -0.3420 H     1 <1>   0.1500 
 42 H        0.4480     5.7390    -0.7690 H     1 <1>   0.3700 
 43 H       -1.9530     8.5520    -0.8160 H     1 <1>   0.1500 
 44 H       -5.2020     5.8380    -0.4330 H     1 <1>   0.1500 
 45 H       -4.3570     8.1370    -0.6720 H     1 <1>   0.1500 
 46 H        2.5160     7.4360     0.5920 H     1 <1>   0.0800 
 47 H        2.8880     8.2210    -0.9370 H     1 <1>   0.0800 
 48 H        2.8100     3.7410    -1.6350 H     1 <1>   0.1500 
 49 H        4.5090     6.7420     0.8870 H     1 <1>   0.1500 
 50 H        4.2020     2.0500    -0.5660 H     1 <1>   0.1500 
 51 H        5.8870     5.0370     1.9680 H     1 <1>   0.1500 
 52 H        6.2830     0.6610     2.0970 H     1 <1>   0.0800 
 53 H        5.8410     0.8230     0.4020 H     1 <1>   0.0800 
 54 H        4.6100     0.9910     1.6640 H     1 <1>   0.0800 
@<TRIPOS>BOND
  1   1   2  2   
  2   1   3  2   
  3   1   4  am  
  4   1   5  1   
  5   4   6  1   
  6   4   7  1   
  7   5  30  1   
  8   5  31  1   
  9   5  32  1   
 10   6   8  1   
 11   6  33  1   
 12   6  34  1   
 13   7   9  1   
 14   7  35  1   
 15   7  36  1   
 16   8  10  1   
 17   8  37  1   
 18   8  38  1   
 19   9  10  1   
 20   9  39  1   
 21   9  40  1   
 22  10  11  1   
 23  11  12  ar  
 24  11  13  ar  
 25  12  14  1   
 26  12  15  ar  
 27  13  16  ar  
 28  13  41  1   
 29  14  17  am  
 30  14  42  1   
 31  15  18  ar  
 32  15  43  1   
 33  16  18  ar  
 34  16  44  1   
 35  17  19  2   
 36  17  20  1   
 37  18  45  1   
 38  20  21  1   
 39  20  46  1   
 40  20  47  1   
 41  21  22  1   
 42  22  23  ar  
 43  22  24  ar  
 44  23  25  ar  
 45  23  48  1   
 46  24  26  ar  
 47  24  49  1   
 48  25  27  ar  
 49  25  50  1   
 50  26  27  ar  
 51  26  51  1   
 52  27  28  1   
 53  28  29  1   
 54  29  52  1   
 55  29  53  1   
 56  29  54  1   
@<TRIPOS>SUBSTRUCTURE
  1 ****   7 GROUP 4 **** **** 0

# MOE 2024.06 (io_trps.svl 2023.06)
