@<TRIPOS>MOLECULE
5-Oxo-1-p-tolyl-pyrrolidine-3-carboxylic acid 3,3-dimethyl-2-oxo-butyl ester
46 47 1 0 0 
SMALL
USER_CHARGES


@<TRIPOS>ATOM
  1 O        0.3670     0.2700    -0.1680 O.2   1 <1>  -0.5700 
  2 C        1.4880     0.6870    -0.0120 C.2   1 <1>   0.5690 
  3 N        2.6420    -0.0430     0.0340 N.am  1 <1>  -0.4770 
  4 C        1.7620     2.1550     0.1520 C.3   1 <1>  -0.0990 
  5 C        2.8120    -1.4330    -0.1310 C.ar  1 <1>   0.1170 
  6 C        3.8070     0.8430     0.2240 C.3   1 <1>   0.1400 
  7 C        3.2800     2.2490    -0.0800 C.3   1 <1>  -0.0190 
  8 C        2.0080    -2.1570    -1.0060 C.ar  1 <1>  -0.1500 
  9 C        3.8000    -2.1210     0.5680 C.ar  1 <1>  -0.1500 
 10 C        4.0040     3.3110     0.7300 C.2   1 <1>   0.6590 
 11 C        2.1890    -3.5170    -1.1840 C.ar  1 <1>  -0.1500 
 12 C        3.9840    -3.4810     0.3910 C.ar  1 <1>  -0.1500 
 13 O        3.4280     4.1230     1.4040 O.2   1 <1>  -0.5700 
 14 O        5.3240     3.2870     0.6470 O.3   1 <1>  -0.4300 
 15 C        3.1810    -4.1880    -0.4890 C.ar  1 <1>  -0.1430 
 16 C        6.1220     4.1890     1.3980 C.3   1 <1>   0.1810 
 17 C        3.3790    -5.6800    -0.6830 C.3   1 <1>  -0.0970 
 18 C        7.6020     3.9520     1.1270 C.2   1 <1>   0.4480 
 19 O        8.2330     3.2580     1.8730 O.2   1 <1>  -0.5700 
 20 C        8.2450     4.6470    -0.1000 C.3   1 <1>   0.0610 
 21 C        9.6670     4.1060    -0.3530 C.3   1 <1>  -0.2400 
 22 C        7.4260     4.4130    -1.3830 C.3   1 <1>  -0.2400 
 23 C        8.3580     6.1630     0.1470 C.3   1 <1>  -0.2400 
 24 H        1.4870     2.4400     1.1510 H     1 <1>   0.0800 
 25 H        1.2080     2.7360    -0.5610 H     1 <1>   0.0800 
 26 H        4.6090     0.5710    -0.4410 H     1 <1>   0.0800 
 27 H        4.1390     0.7700     1.2460 H     1 <1>   0.0800 
 28 H        3.4560     2.4490    -1.1210 H     1 <1>   0.0800 
 29 H        1.2330    -1.6550    -1.5550 H     1 <1>   0.1500 
 30 H        4.4290    -1.5990     1.2630 H     1 <1>   0.1500 
 31 H        1.5510    -4.0500    -1.8660 H     1 <1>   0.1500 
 32 H        4.7540    -3.9900     0.9450 H     1 <1>   0.1500 
 33 H        5.9200     4.0200     2.4410 H     1 <1>   0.0800 
 34 H        5.8380     5.1940     1.1450 H     1 <1>   0.0800 
 35 H        3.1150    -5.9660    -1.6850 H     1 <1>   0.0800 
 36 H        2.7570    -6.2210     0.0080 H     1 <1>   0.0800 
 37 H        4.4050    -5.9500    -0.5120 H     1 <1>   0.0800 
 38 H        9.6370     3.0450    -0.5320 H     1 <1>   0.0800 
 39 H       10.2930     4.2800     0.5040 H     1 <1>   0.0800 
 40 H       10.1190     4.5830    -1.2050 H     1 <1>   0.0800 
 41 H        6.4510     4.8600    -1.3100 H     1 <1>   0.0800 
 42 H        7.3080     3.3590    -1.5610 H     1 <1>   0.0800 
 43 H        7.9240     4.8450    -2.2340 H     1 <1>   0.0800 
 44 H        7.3890     6.6160     0.2570 H     1 <1>   0.0800 
 45 H        8.8580     6.6440    -0.6760 H     1 <1>   0.0800 
 46 H        8.9250     6.3520     1.0420 H     1 <1>   0.0800 
@<TRIPOS>BOND
  1   1   2  2   
  2   2   3  am  
  3   2   4  1   
  4   3   5  1   
  5   3   6  1   
  6   4   7  1   
  7   4  24  1   
  8   4  25  1   
  9   5   8  ar  
 10   5   9  ar  
 11   6   7  1   
 12   6  26  1   
 13   6  27  1   
 14   7  10  1   
 15   7  28  1   
 16   8  11  ar  
 17   8  29  1   
 18   9  12  ar  
 19   9  30  1   
 20  10  13  2   
 21  10  14  1   
 22  11  15  ar  
 23  11  31  1   
 24  12  15  ar  
 25  12  32  1   
 26  14  16  1   
 27  15  17  1   
 28  16  18  1   
 29  16  33  1   
 30  16  34  1   
 31  17  35  1   
 32  17  36  1   
 33  17  37  1   
 34  18  19  2   
 35  18  20  1   
 36  20  21  1   
 37  20  22  1   
 38  20  23  1   
 39  21  38  1   
 40  21  39  1   
 41  21  40  1   
 42  22  41  1   
 43  22  42  1   
 44  22  43  1   
 45  23  44  1   
 46  23  45  1   
 47  23  46  1   
@<TRIPOS>SUBSTRUCTURE
  1 ****   6 GROUP 4 **** **** 0

# MOE 2024.06 (io_trps.svl 2023.06)
