@<TRIPOS>MOLECULE
3-[2-(2-Chloro-phenoxy)-acetylamino]-4-(4-methyl-piperazin-1-yl)-benzoic acid me
54 56 1 0 0 
SMALL
USER_CHARGES


@<TRIPOS>ATOM
  1 CL      -1.3500    -1.0180    -0.7770 Cl    1 <1>  -0.1770 
  2 C       -1.4150     0.7330    -0.8030 C.ar  1 <1>   0.1770 
  3 C       -2.6140     1.3940    -0.5520 C.ar  1 <1>   0.0820 
  4 C       -0.2500     1.4240    -1.0770 C.ar  1 <1>  -0.1500 
  5 O       -3.7230     0.6490    -0.2940 O.3   1 <1>  -0.3630 
  6 C       -2.6210     2.7880    -0.5790 C.ar  1 <1>  -0.1500 
  7 C       -0.2710     2.8080    -1.1020 C.ar  1 <1>  -0.1500 
  8 C       -5.0020     1.2640    -0.1320 C.3   1 <1>   0.1810 
  9 C       -1.4540     3.4840    -0.8520 C.ar  1 <1>  -0.1500 
 10 C       -6.0920     0.2230     0.0830 C.2   1 <1>   0.5690 
 11 O       -7.1530     0.5860     0.5260 O.2   1 <1>  -0.5700 
 12 N       -5.8030    -1.0750    -0.2200 N.am  1 <1>  -0.5470 
 13 C       -6.5190    -2.2750    -0.0830 C.ar  1 <1>   0.1170 
 14 C       -5.7810    -3.4660     0.0050 C.ar  1 <1>   0.1000 
 15 C       -7.9030    -2.3240    -0.0620 C.ar  1 <1>  -0.1500 
 16 N       -4.3850    -3.4700     0.0110 N.pl3 1 <1>  -0.8380 
 17 C       -6.4650    -4.6680     0.1010 C.ar  1 <1>  -0.1500 
 18 C       -8.6050    -3.5280     0.0400 C.ar  1 <1>   0.0860 
 19 C       -3.6350    -2.9510     1.1950 C.3   1 <1>   0.2090 
 20 C       -3.6130    -3.8170    -1.2180 C.3   1 <1>   0.2090 
 21 C       -7.8450    -4.6980     0.1190 C.ar  1 <1>  -0.1500 
 22 C      -10.0530    -3.5530     0.0560 C.2   1 <1>   0.6340 
 23 C       -2.3790    -3.8030     1.4720 C.3   1 <1>   0.3430 
 24 C       -2.3530    -4.6390    -0.8690 C.3   1 <1>   0.3430 
 25 O      -10.7430    -2.5660    -0.1030 O.2   1 <1>  -0.5700 
 26 O      -10.6590    -4.7300     0.2540 O.3   1 <1>  -0.4300 
 27 N       -1.5370    -4.0120     0.2360 N.4   1 <1>  -0.9590 
 28 C      -12.0680    -4.8440     0.2880 C.3   1 <1>   0.0400 
 29 C       -0.3120    -4.8100     0.5360 C.3   1 <1>   0.2630 
 30 H        0.6640     0.8920    -1.2700 H     1 <1>   0.1500 
 31 H       -3.5140     3.3540    -0.3900 H     1 <1>   0.1500 
 32 H        0.6290     3.3600    -1.3140 H     1 <1>   0.1500 
 33 H       -5.2260     1.8300    -1.0180 H     1 <1>   0.0800 
 34 H       -4.9630     1.9150     0.7220 H     1 <1>   0.0800 
 35 H       -1.4650     4.5610    -0.8720 H     1 <1>   0.1500 
 36 H       -4.8310    -1.2370    -0.4890 H     1 <1>   0.3700 
 37 H       -8.4650    -1.4090    -0.1310 H     1 <1>   0.1500 
 38 H       -5.9090    -5.5840     0.1680 H     1 <1>   0.1500 
 39 H       -4.2770    -2.9650     2.0590 H     1 <1>   0.0800 
 40 H       -3.3470    -1.9290     1.0190 H     1 <1>   0.0800 
 41 H       -3.3270    -2.9130    -1.7260 H     1 <1>   0.0800 
 42 H       -4.2380    -4.3840    -1.8870 H     1 <1>   0.0800 
 43 H       -8.3450    -5.6490     0.1980 H     1 <1>   0.1500 
 44 H       -2.7000    -4.7580     1.8530 H     1 <1>   0.0800 
 45 H       -1.7940    -3.3220     2.2380 H     1 <1>   0.0800 
 46 H       -1.7490    -4.7450    -1.7550 H     1 <1>   0.0800 
 47 H       -2.6690    -5.6230    -0.5660 H     1 <1>   0.0800 
 48 H       -1.2530    -3.0740    -0.0940 H     1 <1>   0.4500 
 49 H      -12.3240    -5.8730     0.4600 H     1 <1>   0.0800 
 50 H      -12.4660    -4.5140    -0.6570 H     1 <1>   0.0800 
 51 H      -12.4470    -4.2280     1.0850 H     1 <1>   0.0800 
 52 H       -0.5820    -5.7940     0.8840 H     1 <1>   0.0800 
 53 H        0.2750    -4.3230     1.2990 H     1 <1>   0.0800 
 54 H        0.2950    -4.9110    -0.3490 H     1 <1>   0.0800 
@<TRIPOS>BOND
  1   1   2  1   
  2   2   3  ar  
  3   2   4  ar  
  4   3   5  1   
  5   3   6  ar  
  6   4   7  ar  
  7   4  30  1   
  8   5   8  1   
  9   6   9  ar  
 10   6  31  1   
 11   7   9  ar  
 12   7  32  1   
 13   8  10  1   
 14   8  33  1   
 15   8  34  1   
 16   9  35  1   
 17  10  11  2   
 18  10  12  am  
 19  12  13  1   
 20  12  36  1   
 21  13  14  ar  
 22  13  15  ar  
 23  14  16  1   
 24  14  17  ar  
 25  15  18  ar  
 26  15  37  1   
 27  16  19  1   
 28  16  20  1   
 29  17  21  ar  
 30  17  38  1   
 31  18  21  ar  
 32  18  22  1   
 33  19  23  1   
 34  19  39  1   
 35  19  40  1   
 36  20  24  1   
 37  20  41  1   
 38  20  42  1   
 39  21  43  1   
 40  22  25  2   
 41  22  26  1   
 42  23  27  1   
 43  23  44  1   
 44  23  45  1   
 45  24  27  1   
 46  24  46  1   
 47  24  47  1   
 48  26  28  1   
 49  27  29  1   
 50  27  48  1   
 51  28  49  1   
 52  28  50  1   
 53  28  51  1   
 54  29  52  1   
 55  29  53  1   
 56  29  54  1   
@<TRIPOS>SUBSTRUCTURE
  1 ****  12 GROUP 4 **** **** 0

# MOE 2024.06 (io_trps.svl 2023.06)
