@<TRIPOS>MOLECULE
4-Fluoro-N-(4-methoxy-phenyl)-N-(2-morpholin-4-yl-2-oxo-ethyl)-benzenesulfonamid
49 51 1 0 0 
SMALL
USER_CHARGES


@<TRIPOS>ATOM
  1 S        0.6520     0.2950    -0.7450 S.o2  1 <1>   1.4470 
  2 O        1.6120     0.2190    -1.8240 O.2   1 <1>  -0.6500 
  3 O        1.0530    -0.0230     0.6050 O.2   1 <1>  -0.6500 
  4 N        0.0980     1.9320    -0.7360 N.am  1 <1>  -0.6930 
  5 C       -0.8470    -0.6200    -1.2060 C.ar  1 <1>  -0.0090 
  6 C       -1.0570     2.2600    -0.0340 C.ar  1 <1>   0.1990 
  7 C        1.1500     2.9870    -0.8710 C.3   1 <1>   0.2570 
  8 C       -1.1210    -0.9250    -2.5380 C.ar  1 <1>  -0.1500 
  9 C       -1.7730    -1.0030    -0.2360 C.ar  1 <1>  -0.1500 
 10 C       -1.0800     2.2820     1.3550 C.ar  1 <1>  -0.1500 
 11 C       -2.2240     2.5500    -0.7280 C.ar  1 <1>  -0.1500 
 12 C        2.0620     3.1480     0.3580 C.2   1 <1>   0.5690 
 13 C       -2.2780    -1.5960    -2.8990 C.ar  1 <1>  -0.1500 
 14 C       -2.9370    -1.6720    -0.5770 C.ar  1 <1>  -0.1500 
 15 C       -2.2430     2.5820     2.0400 C.ar  1 <1>  -0.1500 
 16 C       -3.3910     2.8480    -0.0490 C.ar  1 <1>  -0.1500 
 17 O        1.6740     3.9030     1.2210 O.2   1 <1>  -0.5700 
 18 N        3.2670     2.4970     0.4880 N.am  1 <1>  -0.6600 
 19 C       -3.1670    -1.9570    -1.9080 C.ar  1 <1>   0.1900 
 20 C       -3.4110     2.8670     1.3360 C.ar  1 <1>   0.0830 
 21 C        3.9540     1.6620    -0.5460 C.3   1 <1>   0.1400 
 22 C        4.0030     2.4970     1.7900 C.3   1 <1>   0.1400 
 23 F       -4.2610    -2.5870    -2.2390 F     1 <1>  -0.1900 
 24 O       -4.5980     3.1700     1.9270 O.3   1 <1>  -0.3630 
 25 C        5.4520     2.0060    -0.6260 C.3   1 <1>   0.1200 
 26 C        5.4920     2.8110     1.5780 C.3   1 <1>   0.1200 
 27 C       -4.6900     3.3130     3.3270 C.3   1 <1>   0.0400 
 28 O        6.0510     1.9390     0.6360 O.3   1 <1>  -0.5600 
 29 H        0.6580     3.9300    -1.0250 H     1 <1>   0.0800 
 30 H        1.7340     2.7990    -1.7500 H     1 <1>   0.0800 
 31 H       -0.4190    -0.6340    -3.3030 H     1 <1>   0.1500 
 32 H       -1.5820    -0.7690     0.7990 H     1 <1>   0.1500 
 33 H       -0.1790     2.0630     1.9010 H     1 <1>   0.1500 
 34 H       -2.2150     2.5350    -1.8030 H     1 <1>   0.1500 
 35 H       -2.4890    -1.8340    -3.9260 H     1 <1>   0.1500 
 36 H       -3.6520    -1.9660     0.1710 H     1 <1>   0.1500 
 37 H       -2.2180     2.5910     3.1130 H     1 <1>   0.1500 
 38 H       -4.2950     3.0700    -0.5870 H     1 <1>   0.1500 
 39 H        3.5240     1.8110    -1.5170 H     1 <1>   0.0800 
 40 H        3.8460     0.6220    -0.2890 H     1 <1>   0.0800 
 41 H        3.9070     1.5270     2.2460 H     1 <1>   0.0800 
 42 H        3.5850     3.2210     2.4670 H     1 <1>   0.0800 
 43 H        5.5920     2.9970    -1.0200 H     1 <1>   0.0800 
 44 H        5.9580     1.3050    -1.2650 H     1 <1>   0.0800 
 45 H        6.0310     2.6880     2.5000 H     1 <1>   0.0800 
 46 H        5.6200     3.8220     1.2330 H     1 <1>   0.0800 
 47 H       -5.7000     3.5900     3.5690 H     1 <1>   0.0800 
 48 H       -4.0130     4.0870     3.6440 H     1 <1>   0.0800 
 49 H       -4.4470     2.3740     3.7910 H     1 <1>   0.0800 
@<TRIPOS>BOND
  1   1   2  2   
  2   1   3  2   
  3   1   4  am  
  4   1   5  1   
  5   4   6  1   
  6   4   7  1   
  7   5   8  ar  
  8   5   9  ar  
  9   6  10  ar  
 10   6  11  ar  
 11   7  12  1   
 12   7  29  1   
 13   7  30  1   
 14   8  13  ar  
 15   8  31  1   
 16   9  14  ar  
 17   9  32  1   
 18  10  15  ar  
 19  10  33  1   
 20  11  16  ar  
 21  11  34  1   
 22  12  17  2   
 23  12  18  am  
 24  13  19  ar  
 25  13  35  1   
 26  14  19  ar  
 27  14  36  1   
 28  15  20  ar  
 29  15  37  1   
 30  16  20  ar  
 31  16  38  1   
 32  18  21  1   
 33  18  22  1   
 34  19  23  1   
 35  20  24  1   
 36  21  25  1   
 37  21  39  1   
 38  21  40  1   
 39  22  26  1   
 40  22  41  1   
 41  22  42  1   
 42  24  27  1   
 43  25  28  1   
 44  25  43  1   
 45  25  44  1   
 46  26  28  1   
 47  26  45  1   
 48  26  46  1   
 49  27  47  1   
 50  27  48  1   
 51  27  49  1   
@<TRIPOS>SUBSTRUCTURE
  1 ****   4 GROUP 4 **** **** 0

# MOE 2024.06 (io_trps.svl 2023.06)
