@<TRIPOS>MOLECULE
1-(4-Methoxy-3-methyl-benzenesulfonyl)-piperidine-4-carboxylic acid benzylamide
54 56 1 0 0 
SMALL
USER_CHARGES


@<TRIPOS>ATOM
  1 S        0.1440    -0.4080     2.2970 S.o2  1 <1>   1.4470 
  2 O        0.2940    -1.6450     3.0320 O.2   1 <1>  -0.6500 
  3 O        0.1120     0.8450     3.0230 O.2   1 <1>  -0.6500 
  4 N        1.4540    -0.3020     1.2230 N.am  1 <1>  -0.8490 
  5 C       -1.2870    -0.5370     1.1900 C.ar  1 <1>  -0.0090 
  6 C        2.7240    -0.5560     1.9070 C.3   1 <1>   0.1960 
  7 C        1.4720     0.9780     0.5080 C.3   1 <1>   0.1960 
  8 C       -2.3680     0.3280     1.3010 C.ar  1 <1>  -0.1500 
  9 C       -1.3320    -1.5080     0.1970 C.ar  1 <1>  -0.1500 
 10 C        3.8730    -0.6020     0.8960 C.3   1 <1>  -0.1600 
 11 C        2.5710     0.9730    -0.5560 C.3   1 <1>  -0.1600 
 12 C       -3.4600     0.2430     0.4520 C.ar  1 <1>  -0.1440 
 13 C       -2.4130    -1.6100    -0.6600 C.ar  1 <1>  -0.1500 
 14 C        3.9470     0.6920     0.0700 C.3   1 <1>  -0.0190 
 15 C       -3.4870    -0.7330    -0.5390 C.ar  1 <1>   0.0820 
 16 C       -4.6210     1.2150     0.6130 C.3   1 <1>  -0.0970 
 17 C        5.0520     0.6180    -0.9820 C.2   1 <1>   0.5690 
 18 O       -4.5740    -0.7810    -1.3510 O.3   1 <1>  -0.3630 
 19 O        4.9220    -0.0960    -1.9460 O.2   1 <1>  -0.5700 
 20 N        6.1700     1.3610    -0.8040 N.am  1 <1>  -0.7300 
 21 C       -4.7000    -1.7490    -2.3690 C.3   1 <1>   0.0400 
 22 C        7.3220     1.3540    -1.7160 C.3   1 <1>   0.2840 
 23 C        8.4620     2.0740    -1.0210 C.ar  1 <1>  -0.1440 
 24 C        9.3590     1.3670    -0.2350 C.ar  1 <1>  -0.1500 
 25 C        8.6080     3.4470    -1.1550 C.ar  1 <1>  -0.1500 
 26 C       10.3930     2.0250     0.4090 C.ar  1 <1>  -0.1500 
 27 C        9.6410     4.1050    -0.5110 C.ar  1 <1>  -0.1500 
 28 C       10.5340     3.3950     0.2710 C.ar  1 <1>  -0.1500 
 29 H        2.6790    -1.5050     2.4160 H     1 <1>   0.0800 
 30 H        2.9020     0.2110     2.6430 H     1 <1>   0.0800 
 31 H        1.6380     1.7870     1.2020 H     1 <1>   0.0800 
 32 H        0.5230     1.1400     0.0250 H     1 <1>   0.0800 
 33 H       -2.3490     1.0830     2.0700 H     1 <1>   0.1500 
 34 H       -0.5050    -2.1900     0.0960 H     1 <1>   0.1500 
 35 H        3.7240    -1.4430     0.2400 H     1 <1>   0.0800 
 36 H        4.8010    -0.7540     1.4180 H     1 <1>   0.0800 
 37 H        2.5890     1.9240    -1.0590 H     1 <1>   0.0800 
 38 H        2.3400     0.2190    -1.2900 H     1 <1>   0.0800 
 39 H       -2.3990    -2.3760    -1.4110 H     1 <1>   0.1500 
 40 H        4.1770     1.5020     0.7380 H     1 <1>   0.0800 
 41 H       -4.4470     1.9030     1.4200 H     1 <1>   0.0800 
 42 H       -5.5250     0.6690     0.8150 H     1 <1>   0.0800 
 43 H       -4.7540     1.7750    -0.2950 H     1 <1>   0.0800 
 44 H        6.3020     1.9430     0.0240 H     1 <1>   0.3700 
 45 H       -5.6400    -1.5890    -2.8660 H     1 <1>   0.0800 
 46 H       -4.6840    -2.7280    -1.9240 H     1 <1>   0.0800 
 47 H       -3.8920    -1.6270    -3.0680 H     1 <1>   0.0800 
 48 H        7.0600     1.8550    -2.6330 H     1 <1>   0.0800 
 49 H        7.5970     0.3390    -1.9490 H     1 <1>   0.0800 
 50 H        9.2550     0.3020    -0.1200 H     1 <1>   0.1500 
 51 H        7.9170     4.0080    -1.7600 H     1 <1>   0.1500 
 52 H       11.0880     1.4720     1.0160 H     1 <1>   0.1500 
 53 H        9.7510     5.1700    -0.6200 H     1 <1>   0.1500 
 54 H       11.3390     3.9060     0.7710 H     1 <1>   0.1500 
@<TRIPOS>BOND
  1   1   2  2   
  2   1   3  2   
  3   1   4  am  
  4   1   5  1   
  5   4   6  1   
  6   4   7  1   
  7   5   8  ar  
  8   5   9  ar  
  9   6  10  1   
 10   6  29  1   
 11   6  30  1   
 12   7  11  1   
 13   7  31  1   
 14   7  32  1   
 15   8  12  ar  
 16   8  33  1   
 17   9  13  ar  
 18   9  34  1   
 19  10  14  1   
 20  10  35  1   
 21  10  36  1   
 22  11  14  1   
 23  11  37  1   
 24  11  38  1   
 25  12  15  ar  
 26  12  16  1   
 27  13  15  ar  
 28  13  39  1   
 29  14  17  1   
 30  14  40  1   
 31  15  18  1   
 32  16  41  1   
 33  16  42  1   
 34  16  43  1   
 35  17  19  2   
 36  17  20  am  
 37  18  21  1   
 38  20  22  1   
 39  20  44  1   
 40  21  45  1   
 41  21  46  1   
 42  21  47  1   
 43  22  23  1   
 44  22  48  1   
 45  22  49  1   
 46  23  24  ar  
 47  23  25  ar  
 48  24  26  ar  
 49  24  50  1   
 50  25  27  ar  
 51  25  51  1   
 52  26  28  ar  
 53  26  52  1   
 54  27  28  ar  
 55  27  53  1   
 56  28  54  1   
@<TRIPOS>SUBSTRUCTURE
  1 ****  11 GROUP 4 **** **** 0

# MOE 2024.06 (io_trps.svl 2023.06)
