@<TRIPOS>MOLECULE
3-(4-Chloro-phenylmethanesulfonyl)-propionic acid
26 26 1 0 0 
SMALL
USER_CHARGES


@<TRIPOS>ATOM
  1 CL      -0.2130     0.1690     0.0650 Cl    1 <1>  -0.1770 
  2 C        1.3370     0.9640     0.1730 C.ar  1 <1>   0.1770 
  3 C        2.1810     0.6630     1.2240 C.ar  1 <1>  -0.1500 
  4 C        1.6970     1.8810    -0.7960 C.ar  1 <1>  -0.1500 
  5 C        3.4090     1.2970     1.3080 C.ar  1 <1>  -0.1500 
  6 C        2.9260     2.5120    -0.7070 C.ar  1 <1>  -0.1500 
  7 C        3.7840     2.2270     0.3470 C.ar  1 <1>  -0.1440 
  8 C        5.1360     2.9240     0.4490 C.3   1 <1>   0.0890 
  9 S        6.5300     1.8910    -0.0160 S.o2  1 <1>   1.0900 
 10 O        6.4150     1.5770    -1.4240 O.2   1 <1>  -0.6500 
 11 O        6.6480     0.8250     0.9570 O.2   1 <1>  -0.6500 
 12 C        7.8830     3.0430     0.2160 C.3   1 <1>  -0.0550 
 13 C        9.2860     2.4920    -0.0950 C.3   1 <1>  -0.2660 
 14 C       10.3510     3.5370     0.1260 C.2   1 <1>   0.9060 
 15 O       10.0130     4.6540     0.5320 O.co2 1 <1>  -0.9000 
 16 O       11.5210     3.2340    -0.1080 O.co2 1 <1>  -0.9000 
 17 H        1.8820    -0.0590     1.9620 H     1 <1>   0.1500 
 18 H        1.0240     2.0920    -1.6080 H     1 <1>   0.1500 
 19 H        4.0760     1.0570     2.1210 H     1 <1>   0.1500 
 20 H        3.2120     3.2200    -1.4670 H     1 <1>   0.1500 
 21 H        5.2660     3.2570     1.4610 H     1 <1>   0.0800 
 22 H        5.1220     3.7970    -0.1740 H     1 <1>   0.0800 
 23 H        7.8870     3.3870     1.2330 H     1 <1>   0.0800 
 24 H        7.7280     3.9040    -0.4080 H     1 <1>   0.0800 
 25 H        9.3430     2.1720    -1.1180 H     1 <1>   0.0800 
 26 H        9.5060     1.6550     0.5390 H     1 <1>   0.0800 
@<TRIPOS>BOND
  1   1   2  1   
  2   2   3  ar  
  3   2   4  ar  
  4   3   5  ar  
  5   3  17  1   
  6   4   6  ar  
  7   4  18  1   
  8   5   7  ar  
  9   5  19  1   
 10   6   7  ar  
 11   6  20  1   
 12   7   8  1   
 13   8   9  1   
 14   8  21  1   
 15   8  22  1   
 16   9  10  2   
 17   9  11  2   
 18   9  12  1   
 19  12  13  1   
 20  12  23  1   
 21  12  24  1   
 22  13  14  1   
 23  13  25  1   
 24  13  26  1   
 25  14  15  ar  
 26  14  16  ar  
@<TRIPOS>SUBSTRUCTURE
  1 ****   8 GROUP 4 **** **** 0

# MOE 2024.06 (io_trps.svl 2023.06)
