@<TRIPOS>MOLECULE
N-Benzo[1,3]dioxol-5-ylmethyl-2-[cyclohexyl-(toluene-4-sulfonyl)-amino]-acetamid
59 62 1 0 0 
SMALL
USER_CHARGES


@<TRIPOS>ATOM
  1 S        1.2300    -1.8340     0.6970 S.o2  1 <1>   1.4470 
  2 O        0.5210    -1.7510     1.9550 O.2   1 <1>  -0.6500 
  3 O        2.1490    -2.9430     0.5260 O.2   1 <1>  -0.6500 
  4 N        0.0970    -1.9360    -0.5730 N.am  1 <1>  -0.8490 
  5 C        2.1010    -0.2590     0.4430 C.ar  1 <1>  -0.0090 
  6 C       -1.2670    -2.2770    -0.1140 C.3   1 <1>   0.2760 
  7 C        0.6220    -2.6360    -1.7870 C.3   1 <1>   0.2570 
  8 C        3.2040     0.0550     1.2260 C.ar  1 <1>  -0.1500 
  9 C        1.7020     0.6760    -0.5080 C.ar  1 <1>  -0.1500 
 10 C       -2.1300    -3.0520    -1.1310 C.3   1 <1>  -0.1600 
 11 C       -1.9830    -0.9640     0.2510 C.3   1 <1>  -0.1600 
 12 C        1.8550    -2.0110    -2.4640 C.2   1 <1>   0.5690 
 13 C        3.8860     1.2480     1.0670 C.ar  1 <1>  -0.1500 
 14 C        2.3850     1.8670    -0.6790 C.ar  1 <1>  -0.1500 
 15 C       -3.5360    -3.3290    -0.5790 C.3   1 <1>  -0.1600 
 16 C       -3.3940    -1.2170     0.8020 C.3   1 <1>  -0.1600 
 17 O        1.6910    -1.2890    -3.4190 O.2   1 <1>  -0.5700 
 18 N        3.0990    -2.2970    -2.0040 N.am  1 <1>  -0.7300 
 19 C        3.4850     2.1590     0.1080 C.ar  1 <1>  -0.1440 
 20 C       -4.2410    -2.0260    -0.1870 C.3   1 <1>  -0.1600 
 21 C        4.3500    -1.7210    -2.5270 C.3   1 <1>   0.2840 
 22 C        4.2540     3.4550    -0.0720 C.3   1 <1>  -0.0970 
 23 C        5.3050    -1.4590    -1.3740 C.ar  1 <1>  -0.1440 
 24 C        5.8270    -0.1820    -1.1920 C.ar  1 <1>  -0.1500 
 25 C        5.6670    -2.4880    -0.5020 C.ar  1 <1>  -0.1500 
 26 C        6.6980     0.0270    -0.1420 C.ar  1 <1>   0.0820 
 27 C        6.5400    -2.2580     0.5540 C.ar  1 <1>  -0.1500 
 28 O        7.3110     1.1610     0.2160 O.3   1 <1>  -0.3620 
 29 C        7.0430    -0.9820     0.7090 C.ar  1 <1>   0.0820 
 30 C        8.1040     0.8510     1.3610 C.3   1 <1>   0.4000 
 31 O        7.8880    -0.5300     1.6420 O.3   1 <1>  -0.3620 
 32 H       -1.2030    -2.8970     0.7660 H     1 <1>   0.0800 
 33 H       -0.1280    -2.6420    -2.5530 H     1 <1>   0.0800 
 34 H        0.8450    -3.6600    -1.5430 H     1 <1>   0.0800 
 35 H        3.5400    -0.6460     1.9710 H     1 <1>   0.1500 
 36 H        0.8480     0.4780    -1.1340 H     1 <1>   0.1500 
 37 H       -1.6710    -3.9980    -1.3580 H     1 <1>   0.0800 
 38 H       -2.2320    -2.4780    -2.0350 H     1 <1>   0.0800 
 39 H       -2.0530    -0.3460    -0.6270 H     1 <1>   0.0800 
 40 H       -1.4230    -0.4240     0.9930 H     1 <1>   0.0800 
 41 H        4.7400     1.4580     1.6880 H     1 <1>   0.1500 
 42 H        2.0540     2.5630    -1.4300 H     1 <1>   0.1500 
 43 H       -3.4640    -3.9700     0.2840 H     1 <1>   0.0800 
 44 H       -4.1210    -3.8430    -1.3230 H     1 <1>   0.0800 
 45 H       -3.8760    -0.2750     1.0030 H     1 <1>   0.0800 
 46 H       -3.3200    -1.7530     1.7330 H     1 <1>   0.0800 
 47 H        3.1950    -2.7900    -1.1040 H     1 <1>   0.3700 
 48 H       -5.1970    -2.2500     0.2550 H     1 <1>   0.0800 
 49 H       -4.4170    -1.4350    -1.0700 H     1 <1>   0.0800 
 50 H        4.1370    -0.8060    -3.0530 H     1 <1>   0.0800 
 51 H        4.7980    -2.4140    -3.2170 H     1 <1>   0.0800 
 52 H        4.0640     4.1100     0.7590 H     1 <1>   0.0800 
 53 H        3.9610     3.9510    -0.9790 H     1 <1>   0.0800 
 54 H        5.3090     3.2510    -0.1210 H     1 <1>   0.0800 
 55 H        5.5640     0.6370    -1.8360 H     1 <1>   0.1500 
 56 H        5.2690    -3.4790    -0.6400 H     1 <1>   0.1500 
 57 H        6.8230    -3.0400     1.2350 H     1 <1>   0.1500 
 58 H        7.7790     1.4450     2.1960 H     1 <1>   0.0800 
 59 H        9.1430     1.0150     1.1350 H     1 <1>   0.0800 
@<TRIPOS>BOND
  1   1   2  2   
  2   1   3  2   
  3   1   4  am  
  4   1   5  1   
  5   4   6  1   
  6   4   7  1   
  7   5   8  ar  
  8   5   9  ar  
  9   6  10  1   
 10   6  11  1   
 11   6  32  1   
 12   7  12  1   
 13   7  33  1   
 14   7  34  1   
 15   8  13  ar  
 16   8  35  1   
 17   9  14  ar  
 18   9  36  1   
 19  10  15  1   
 20  10  37  1   
 21  10  38  1   
 22  11  16  1   
 23  11  39  1   
 24  11  40  1   
 25  12  17  2   
 26  12  18  am  
 27  13  19  ar  
 28  13  41  1   
 29  14  19  ar  
 30  14  42  1   
 31  15  20  1   
 32  15  43  1   
 33  15  44  1   
 34  16  20  1   
 35  16  45  1   
 36  16  46  1   
 37  18  21  1   
 38  18  47  1   
 39  19  22  1   
 40  20  48  1   
 41  20  49  1   
 42  21  23  1   
 43  21  50  1   
 44  21  51  1   
 45  22  52  1   
 46  22  53  1   
 47  22  54  1   
 48  23  24  ar  
 49  23  25  ar  
 50  24  26  ar  
 51  24  55  1   
 52  25  27  ar  
 53  25  56  1   
 54  26  28  1   
 55  26  29  ar  
 56  27  29  ar  
 57  27  57  1   
 58  28  30  1   
 59  29  31  1   
 60  30  31  1   
 61  30  58  1   
 62  30  59  1   
@<TRIPOS>SUBSTRUCTURE
  1 ****   5 GROUP 4 **** **** 0

# MOE 2024.06 (io_trps.svl 2023.06)
