@<TRIPOS>MOLECULE
1-(2,5-Dichloro-phenyl)-4-(piperidine-1-sulfonyl)-piperazine
44 46 1 0 0 
SMALL
USER_CHARGES


@<TRIPOS>ATOM
  1 CL       0.8400     2.0670     2.3510 Cl    1 <1>  -0.1770 
  2 C       -0.1340     2.3030     0.9130 C.ar  1 <1>   0.1770 
  3 C        0.4650     2.5620    -0.3300 C.ar  1 <1>   0.1000 
  4 C       -1.5080     2.2240     1.0600 C.ar  1 <1>  -0.1500 
  5 N        1.8420     2.6560    -0.5510 N.pl3 1 <1>  -0.8380 
  6 C       -0.3740     2.7390    -1.4230 C.ar  1 <1>  -0.1500 
  7 C       -2.3260     2.4030    -0.0440 C.ar  1 <1>  -0.1500 
  8 C        2.5490     3.8350     0.0370 C.3   1 <1>   0.2090 
  9 C        2.6400     1.3980    -0.4260 C.3   1 <1>   0.2090 
 10 C       -1.7440     2.6590    -1.2730 C.ar  1 <1>   0.1770 
 11 C        3.9710     3.9700    -0.5530 C.3   1 <1>   0.1960 
 12 C        4.0600     1.5920    -1.0050 C.3   1 <1>   0.1960 
 13 CL      -2.7710     2.8850    -2.6660 Cl    1 <1>  -0.1770 
 14 N        4.7830     2.7410    -0.4170 N.am  1 <1>  -0.8490 
 15 S        5.3530     2.4630     1.1570 S.o2  1 <1>   1.5760 
 16 O        4.9570     3.5720     1.9980 O.2   1 <1>  -0.6500 
 17 O        5.0500     1.0980     1.5280 O.2   1 <1>  -0.6500 
 18 N        7.0150     2.5780     0.8810 N.am  1 <1>  -0.8490 
 19 C        7.4370     3.9140     0.4600 C.3   1 <1>   0.1960 
 20 C        7.5270     1.5240     0.0060 C.3   1 <1>   0.1960 
 21 C        8.9660     4.0090     0.4490 C.3   1 <1>  -0.1600 
 22 C        9.0590     1.5490    -0.0180 C.3   1 <1>  -0.1600 
 23 C        9.5910     2.9250    -0.4370 C.3   1 <1>  -0.1600 
 24 H       -1.9290     2.0240     2.0290 H     1 <1>   0.1500 
 25 H        0.0520     2.9380    -2.3880 H     1 <1>   0.1500 
 26 H       -3.3970     2.3460     0.0430 H     1 <1>   0.1500 
 27 H        2.6030     3.7350     1.1070 H     1 <1>   0.0800 
 28 H        1.9890     4.7270    -0.1810 H     1 <1>   0.0800 
 29 H        2.1430     0.6090    -0.9630 H     1 <1>   0.0800 
 30 H        2.7020     1.1020     0.6060 H     1 <1>   0.0800 
 31 H        4.4750     4.7990    -0.0890 H     1 <1>   0.0800 
 32 H        3.8730     4.2040    -1.5990 H     1 <1>   0.0800 
 33 H        3.9650     1.7510    -2.0650 H     1 <1>   0.0800 
 34 H        4.6300     0.6890    -0.8710 H     1 <1>   0.0800 
 35 H        7.0490     4.6500     1.1450 H     1 <1>   0.0800 
 36 H        7.0520     4.1260    -0.5230 H     1 <1>   0.0800 
 37 H        7.1440     1.6590    -0.9920 H     1 <1>   0.0800 
 38 H        7.2020     0.5620     0.3670 H     1 <1>   0.0800 
 39 H        9.3230     3.9030     1.4590 H     1 <1>   0.0800 
 40 H        9.2610     4.9810     0.0970 H     1 <1>   0.0800 
 41 H        9.4180     0.7980    -0.6990 H     1 <1>   0.0800 
 42 H        9.4210     1.3030     0.9650 H     1 <1>   0.0800 
 43 H       10.6630     2.9480    -0.3470 H     1 <1>   0.0800 
 44 H        9.3350     3.1110    -1.4660 H     1 <1>   0.0800 
@<TRIPOS>BOND
  1   1   2  1   
  2   2   3  ar  
  3   2   4  ar  
  4   3   5  1   
  5   3   6  ar  
  6   4   7  ar  
  7   4  24  1   
  8   5   8  1   
  9   5   9  1   
 10   6  10  ar  
 11   6  25  1   
 12   7  10  ar  
 13   7  26  1   
 14   8  11  1   
 15   8  27  1   
 16   8  28  1   
 17   9  12  1   
 18   9  29  1   
 19   9  30  1   
 20  10  13  1   
 21  11  14  1   
 22  11  31  1   
 23  11  32  1   
 24  12  14  1   
 25  12  33  1   
 26  12  34  1   
 27  14  15  am  
 28  15  16  2   
 29  15  17  2   
 30  15  18  am  
 31  18  19  1   
 32  18  20  1   
 33  19  21  1   
 34  19  35  1   
 35  19  36  1   
 36  20  22  1   
 37  20  37  1   
 38  20  38  1   
 39  21  23  1   
 40  21  39  1   
 41  21  40  1   
 42  22  23  1   
 43  22  41  1   
 44  22  42  1   
 45  23  43  1   
 46  23  44  1   
@<TRIPOS>SUBSTRUCTURE
  1 ****   8 GROUP 4 **** **** 0

# MOE 2024.06 (io_trps.svl 2023.06)
