@<TRIPOS>MOLECULE
2,2-Dimethyl-N-[1-(3-m-tolyl-[1,2,4]oxadiazol-5-yl)-ethyl]-propionamide
42 43 1 0 0 
SMALL
USER_CHARGES


@<TRIPOS>ATOM
  1 O       -0.9790    -1.0420     0.5840 O.2   1 <1>  -0.5700 
  2 C       -2.0620    -0.6090     0.2780 C.2   1 <1>   0.5690 
  3 N       -2.8580    -1.4680    -0.4080 N.am  1 <1>  -0.7300 
  4 C       -2.3860     0.8700     0.6610 C.3   1 <1>   0.0610 
  5 C       -4.2390    -1.4380    -0.9390 C.3   1 <1>   0.4000 
  6 C       -3.8820     1.2160     0.8020 C.3   1 <1>  -0.2400 
  7 C       -1.7780     1.8080    -0.3980 C.3   1 <1>  -0.2400 
  8 C       -1.7360     1.2160     2.0190 C.3   1 <1>  -0.2400 
  9 C       -4.8400    -2.8440    -0.9580 C.2   1 <1>   0.2980 
 10 C       -4.2050    -0.8360    -2.3450 C.3   1 <1>  -0.2400 
 11 O       -4.1990    -3.7920    -1.5910 O.3   1 <1>  -0.0190 
 12 N       -5.9300    -3.1990    -0.4090 N.2   1 <1>  -0.5650 
 13 N       -4.9430    -4.8400    -1.4300 N.2   1 <1>  -0.4100 
 14 C       -5.9670    -4.4980    -0.7310 C.2   1 <1>   0.4620 
 15 C       -7.0490    -5.3800    -0.3240 C.ar  1 <1>   0.0540 
 16 C       -8.1190    -4.9250     0.4510 C.ar  1 <1>  -0.1500 
 17 C       -7.0610    -6.7270    -0.6940 C.ar  1 <1>  -0.1500 
 18 C       -9.1500    -5.7630     0.8400 C.ar  1 <1>  -0.1440 
 19 C       -8.0860    -7.5720    -0.3130 C.ar  1 <1>  -0.1500 
 20 C       -9.1310    -7.0920     0.4540 C.ar  1 <1>  -0.1500 
 21 C      -10.3000    -5.2350     1.6800 C.3   1 <1>  -0.0970 
 22 H       -2.4040    -2.3720    -0.5600 H     1 <1>   0.3700 
 23 H       -4.8680    -0.8470    -0.3040 H     1 <1>   0.0800 
 24 H       -4.0040     2.1990     1.2230 H     1 <1>   0.0800 
 25 H       -4.3710     1.2250    -0.1530 H     1 <1>   0.0800 
 26 H       -4.3690     0.5130     1.4550 H     1 <1>   0.0800 
 27 H       -2.2090     1.6210    -1.3640 H     1 <1>   0.0800 
 28 H       -0.7170     1.6440    -0.4690 H     1 <1>   0.0800 
 29 H       -1.9460     2.8390    -0.1410 H     1 <1>   0.0800 
 30 H       -2.1190     0.5690     2.7890 H     1 <1>   0.0800 
 31 H       -1.9300     2.2360     2.2990 H     1 <1>   0.0800 
 32 H       -0.6690     1.0830     1.9740 H     1 <1>   0.0800 
 33 H       -5.1990    -0.8210    -2.7540 H     1 <1>   0.0800 
 34 H       -3.5790    -1.4250    -2.9910 H     1 <1>   0.0800 
 35 H       -3.8350     0.1710    -2.3150 H     1 <1>   0.0800 
 36 H       -8.1400    -3.8930     0.7510 H     1 <1>   0.1500 
 37 H       -6.2550    -7.1180    -1.2900 H     1 <1>   0.1500 
 38 H       -8.0710    -8.6060    -0.6120 H     1 <1>   0.1500 
 39 H       -9.9270    -7.7540     0.7460 H     1 <1>   0.1500 
 40 H      -10.0160    -4.3330     2.1900 H     1 <1>   0.0800 
 41 H      -10.5880    -5.9640     2.4170 H     1 <1>   0.0800 
 42 H      -11.1450    -5.0260     1.0490 H     1 <1>   0.0800 
@<TRIPOS>BOND
  1   1   2  2   
  2   2   3  am  
  3   2   4  1   
  4   3   5  1   
  5   3  22  1   
  6   4   6  1   
  7   4   7  1   
  8   4   8  1   
  9   5   9  1   
 10   5  10  1   
 11   5  23  1   
 12   6  24  1   
 13   6  25  1   
 14   6  26  1   
 15   7  27  1   
 16   7  28  1   
 17   7  29  1   
 18   8  30  1   
 19   8  31  1   
 20   8  32  1   
 21   9  11  1   
 22   9  12  2   
 23  10  33  1   
 24  10  34  1   
 25  10  35  1   
 26  11  13  1   
 27  12  14  1   
 28  13  14  2   
 29  14  15  1   
 30  15  16  ar  
 31  15  17  ar  
 32  16  18  ar  
 33  16  36  1   
 34  17  19  ar  
 35  17  37  1   
 36  18  20  ar  
 37  18  21  1   
 38  19  20  ar  
 39  19  38  1   
 40  20  39  1   
 41  21  40  1   
 42  21  41  1   
 43  21  42  1   
@<TRIPOS>SUBSTRUCTURE
  1 ****  12 GROUP 4 **** **** 0

# MOE 2024.06 (io_trps.svl 2023.06)
