@<TRIPOS>MOLECULE
2-Adamantan-1-yl-N-(4-morpholin-4-ylmethyl-phenyl)-acetamide
60 64 1 0 0 
SMALL
USER_CHARGES


@<TRIPOS>ATOM
  1 O        1.0100    -0.3260    -1.9950 O.2   1 <1>  -0.5700 
  2 C        0.9490    -1.0170    -1.0090 C.2   1 <1>   0.5690 
  3 N        1.6270    -0.7350     0.1450 N.am  1 <1>  -0.5470 
  4 C        0.1180    -2.2870    -1.0580 C.3   1 <1>  -0.0990 
  5 C        2.4330     0.3690     0.4550 C.ar  1 <1>   0.1170 
  6 C       -1.3390    -2.1390    -0.5620 C.3   1 <1>   0.0000 
  7 C        3.5030     0.2100     1.3260 C.ar  1 <1>  -0.1500 
  8 C        2.1910     1.6320    -0.0700 C.ar  1 <1>  -0.1500 
  9 C       -1.4030    -1.7150     0.9260 C.3   1 <1>  -0.1600 
 10 C       -2.0540    -3.5040    -0.7090 C.3   1 <1>  -0.1600 
 11 C       -2.1110    -1.0940    -1.4020 C.3   1 <1>  -0.1600 
 12 C        4.3240     1.2770     1.6460 C.ar  1 <1>  -0.1500 
 13 C        3.0060     2.7030     0.2470 C.ar  1 <1>  -0.1500 
 14 C       -2.8650    -1.6170     1.4030 C.3   1 <1>  -0.0800 
 15 C       -3.5180    -3.4140    -0.2400 C.3   1 <1>  -0.0800 
 16 C       -3.5760    -0.9910    -0.9360 C.3   1 <1>  -0.0800 
 17 C        4.0870     2.5300     1.0990 C.ar  1 <1>  -0.1430 
 18 C       -3.5490    -2.9860     1.2380 C.3   1 <1>  -0.1600 
 19 C       -3.6070    -0.5740     0.5460 C.3   1 <1>  -0.1600 
 20 C       -4.2560    -2.3630    -1.0900 C.3   1 <1>  -0.1600 
 21 C        5.0010     3.6980     1.4150 C.3   1 <1>   0.4860 
 22 N        6.2390     3.5600     0.6010 N.4   1 <1>  -0.9590 
 23 C        7.2870     4.5610     0.9970 C.3   1 <1>   0.3430 
 24 C        5.9490     3.6430    -0.8760 C.3   1 <1>   0.3430 
 25 C        8.5190     4.4830     0.0740 C.3   1 <1>   0.1200 
 26 C        7.2440     3.6170    -1.7100 C.3   1 <1>   0.1200 
 27 O        8.1300     4.6040    -1.2620 O.3   1 <1>  -0.5600 
 28 H        1.5430    -1.4380     0.8760 H     1 <1>   0.3700 
 29 H        0.6170    -3.0470    -0.4860 H     1 <1>   0.0800 
 30 H        0.1040    -2.6230    -2.0790 H     1 <1>   0.0800 
 31 H        3.6970    -0.7580     1.7520 H     1 <1>   0.1500 
 32 H        1.3560     1.7790    -0.7330 H     1 <1>   0.1500 
 33 H       -0.9380    -0.7550     1.0600 H     1 <1>   0.0800 
 34 H       -0.8780    -2.4280     1.5360 H     1 <1>   0.0800 
 35 H       -1.5430    -4.2520    -0.1300 H     1 <1>   0.0800 
 36 H       -2.0330    -3.8190    -1.7380 H     1 <1>   0.0800 
 37 H       -2.0840    -1.3670    -2.4430 H     1 <1>   0.0800 
 38 H       -1.6470    -0.1270    -1.3120 H     1 <1>   0.0800 
 39 H        5.1440     1.1130     2.3260 H     1 <1>   0.1500 
 40 H        2.7800     3.6650    -0.1820 H     1 <1>   0.1500 
 41 H       -2.8910    -1.3200     2.4370 H     1 <1>   0.0800 
 42 H       -3.9960    -4.3720    -0.3520 H     1 <1>   0.0800 
 43 H       -4.0950    -0.2590    -1.5310 H     1 <1>   0.0800 
 44 H       -4.5680    -2.9270     1.5780 H     1 <1>   0.0800 
 45 H       -3.0450    -3.7210     1.8420 H     1 <1>   0.0800 
 46 H       -3.1430     0.3910     0.6620 H     1 <1>   0.0800 
 47 H       -4.6260    -0.4880     0.8780 H     1 <1>   0.0800 
 48 H       -5.2830    -2.2970    -0.7770 H     1 <1>   0.0800 
 49 H       -4.2480    -2.6590    -2.1250 H     1 <1>   0.0800 
 50 H        5.2420     3.6860     2.4660 H     1 <1>   0.0800 
 51 H        4.5050     4.6270     1.1880 H     1 <1>   0.0800 
 52 H        6.6030     2.6150     0.7740 H     1 <1>   0.4500 
 53 H        7.5950     4.3920     2.0160 H     1 <1>   0.0800 
 54 H        6.8830     5.5580     0.9320 H     1 <1>   0.0800 
 55 H        5.4250     4.5580    -1.0950 H     1 <1>   0.0800 
 56 H        5.3180     2.8210    -1.1760 H     1 <1>   0.0800 
 57 H        9.0450     3.5520     0.2000 H     1 <1>   0.0800 
 58 H        9.1970     5.2900     0.2910 H     1 <1>   0.0800 
 59 H        7.0230     3.8200    -2.7440 H     1 <1>   0.0800 
 60 H        7.7300     2.6590    -1.6470 H     1 <1>   0.0800 
@<TRIPOS>BOND
  1   1   2  2   
  2   2   3  am  
  3   2   4  1   
  4   3   5  1   
  5   3  28  1   
  6   4   6  1   
  7   4  29  1   
  8   4  30  1   
  9   5   7  ar  
 10   5   8  ar  
 11   6   9  1   
 12   6  10  1   
 13   6  11  1   
 14   7  12  ar  
 15   7  31  1   
 16   8  13  ar  
 17   8  32  1   
 18   9  14  1   
 19   9  33  1   
 20   9  34  1   
 21  10  15  1   
 22  10  35  1   
 23  10  36  1   
 24  11  16  1   
 25  11  37  1   
 26  11  38  1   
 27  12  17  ar  
 28  12  39  1   
 29  13  17  ar  
 30  13  40  1   
 31  14  18  1   
 32  14  19  1   
 33  14  41  1   
 34  15  18  1   
 35  15  20  1   
 36  15  42  1   
 37  16  19  1   
 38  16  20  1   
 39  16  43  1   
 40  17  21  1   
 41  18  44  1   
 42  18  45  1   
 43  19  46  1   
 44  19  47  1   
 45  20  48  1   
 46  20  49  1   
 47  21  22  1   
 48  21  50  1   
 49  21  51  1   
 50  22  23  1   
 51  22  24  1   
 52  22  52  1   
 53  23  25  1   
 54  23  53  1   
 55  23  54  1   
 56  24  26  1   
 57  24  55  1   
 58  24  56  1   
 59  25  27  1   
 60  25  57  1   
 61  25  58  1   
 62  26  27  1   
 63  26  59  1   
 64  26  60  1   
@<TRIPOS>SUBSTRUCTURE
  1 ****   5 GROUP 4 **** **** 0

# MOE 2024.06 (io_trps.svl 2023.06)
