@<TRIPOS>MOLECULE
2-(4-Methyl-piperazin-1-yl)-isonicotinic acid
31 32 1 0 0 
SMALL
USER_CHARGES


@<TRIPOS>ATOM
  1 O        0.0370    -0.4980     1.4900 O.co2 1 <1>  -0.9000 
  2 C        0.6760    -1.4560     1.0190 C.2   1 <1>   0.9790 
  3 O        1.9180    -1.4120     1.0010 O.co2 1 <1>  -0.9000 
  4 C       -0.0290    -2.6080     0.4840 C.ar  1 <1>  -0.1790 
  5 C       -1.4050    -2.7360     0.5490 C.ar  1 <1>  -0.1500 
  6 C        0.6090    -3.6710    -0.1420 C.ar  1 <1>  -0.1500 
  7 C       -2.0650    -3.8310     0.0030 C.ar  1 <1>   0.4100 
  8 C       -0.1210    -4.7300    -0.6440 C.ar  1 <1>   0.1600 
  9 N       -1.4410    -4.8400    -0.5930 N.ar  1 <1>  -0.6200 
 10 N       -3.4490    -3.8920     0.0460 N.pl3 1 <1>  -0.8380 
 11 C       -4.0970    -5.2350    -0.0170 C.3   1 <1>   0.2090 
 12 C       -4.1820    -2.8020    -0.6570 C.3   1 <1>   0.2090 
 13 C       -5.5730    -5.1550     0.4160 C.3   1 <1>   0.3430 
 14 C       -5.6590    -2.7580    -0.2150 C.3   1 <1>   0.3430 
 15 N       -6.3460    -4.1000    -0.3420 N.4   1 <1>  -0.9590 
 16 C       -7.7640    -4.0300     0.1170 C.3   1 <1>   0.2630 
 17 H       -1.9680    -1.9640     1.0390 H     1 <1>   0.1500 
 18 H        1.6820    -3.6520    -0.2280 H     1 <1>   0.1500 
 19 H        0.4140    -5.5340    -1.1190 H     1 <1>   0.1500 
 20 H       -3.5700    -5.9120     0.6350 H     1 <1>   0.0800 
 21 H       -4.0240    -5.6220    -1.0190 H     1 <1>   0.0800 
 22 H       -4.1190    -2.9610    -1.7200 H     1 <1>   0.0800 
 23 H       -3.7220    -1.8520    -0.4420 H     1 <1>   0.0800 
 24 H       -5.5960    -4.9310     1.4700 H     1 <1>   0.0800 
 25 H       -6.0310    -6.1200     0.2740 H     1 <1>   0.0800 
 26 H       -6.1780    -2.0220    -0.8050 H     1 <1>   0.0800 
 27 H       -5.6860    -2.4360     0.8130 H     1 <1>   0.0800 
 28 H       -6.3190    -4.3630    -1.3370 H     1 <1>   0.4500 
 29 H       -7.8070    -3.7580     1.1600 H     1 <1>   0.0800 
 30 H       -8.2460    -4.9870    -0.0090 H     1 <1>   0.0800 
 31 H       -8.3080    -3.2950    -0.4540 H     1 <1>   0.0800 
@<TRIPOS>BOND
  1   1   2  ar  
  2   2   3  ar  
  3   2   4  1   
  4   4   5  ar  
  5   4   6  ar  
  6   5   7  ar  
  7   5  17  1   
  8   6   8  ar  
  9   6  18  1   
 10   7   9  ar  
 11   7  10  1   
 12   8   9  ar  
 13   8  19  1   
 14  10  11  1   
 15  10  12  1   
 16  11  13  1   
 17  11  20  1   
 18  11  21  1   
 19  12  14  1   
 20  12  22  1   
 21  12  23  1   
 22  13  15  1   
 23  13  24  1   
 24  13  25  1   
 25  14  15  1   
 26  14  26  1   
 27  14  27  1   
 28  15  16  1   
 29  15  28  1   
 30  16  29  1   
 31  16  30  1   
 32  16  31  1   
@<TRIPOS>SUBSTRUCTURE
  1 ****   7 GROUP 4 **** **** 0

# MOE 2024.06 (io_trps.svl 2023.06)
