@<TRIPOS>MOLECULE
4-Amino-2-[(4-isopropyl-phenylcarbamoyl)-methylsulfanyl]-pyrimidine-5-carboxylic
48 49 1 0 0 
SMALL
USER_CHARGES


@<TRIPOS>ATOM
  1 S       -0.5110    -0.7800     0.3410 S.3   1 <1>  -0.3320 
  2 C       -1.7300     0.5090     0.1950 C.ar  1 <1>   0.7220 
  3 C        0.0650    -1.0640    -1.4070 C.3   1 <1>   0.1310 
  4 N       -2.2830     0.8810     1.3220 N.ar  1 <1>  -0.6200 
  5 N       -1.9490     0.9550    -1.0310 N.ar  1 <1>  -0.6200 
  6 C        1.1330    -2.1450    -1.4850 C.2   1 <1>   0.5690 
  7 C       -3.1830     1.8330     1.2190 C.ar  1 <1>   0.4100 
  8 C       -2.8540     1.9050    -1.1030 C.ar  1 <1>   0.1600 
  9 O        1.5150    -2.4700    -2.5820 O.2   1 <1>  -0.5700 
 10 N        1.6000    -2.6910    -0.3190 N.am  1 <1>  -0.5470 
 11 N       -3.7190     2.1760     2.4140 N.pl3 1 <1>  -0.9000 
 12 C       -3.5310     2.4120    -0.0080 C.ar  1 <1>   0.0860 
 13 C        2.5620    -3.6770    -0.0480 C.ar  1 <1>   0.1170 
 14 C       -4.5060     3.4540    -0.1900 C.2   1 <1>   0.6340 
 15 C        3.4400    -4.1820    -1.0000 C.ar  1 <1>  -0.1500 
 16 C        2.6500    -4.1710     1.2480 C.ar  1 <1>  -0.1500 
 17 O       -4.7580     3.9140    -1.2860 O.2   1 <1>  -0.5700 
 18 O       -5.1640     3.9460     0.8660 O.3   1 <1>  -0.4300 
 19 C        4.3700    -5.1500    -0.6670 C.ar  1 <1>  -0.1500 
 20 C        3.5800    -5.1390     1.5830 C.ar  1 <1>  -0.1500 
 21 C       -6.1280     4.9680     0.7320 C.3   1 <1>   0.1200 
 22 C        4.4510    -5.6400     0.6290 C.ar  1 <1>  -0.1430 
 23 C       -6.6740     5.2850     2.1200 C.3   1 <1>  -0.2400 
 24 C        5.4730    -6.7090     1.0120 C.3   1 <1>   0.0630 
 25 C        6.9020    -6.2000     0.8020 C.3   1 <1>  -0.2400 
 26 C        5.2340    -8.0010     0.2230 C.3   1 <1>  -0.2400 
 27 H        0.4550    -0.1330    -1.7730 H     1 <1>   0.0800 
 28 H       -0.7940    -1.3520    -1.9850 H     1 <1>   0.0800 
 29 H       -3.0710     2.3040    -2.0820 H     1 <1>   0.1500 
 30 H        1.1340    -2.3230     0.5120 H     1 <1>   0.3700 
 31 H       -4.4390     2.9020     2.5140 H     1 <1>   0.4000 
 32 H       -3.4110     1.7020     3.2660 H     1 <1>   0.4000 
 33 H        3.4080    -3.8230    -2.0110 H     1 <1>   0.1500 
 34 H        1.9840    -3.7990     2.0050 H     1 <1>   0.1500 
 35 H        5.0340    -5.5200    -1.4280 H     1 <1>   0.1500 
 36 H        3.6200    -5.5010     2.5950 H     1 <1>   0.1500 
 37 H       -6.9100     4.6180     0.0780 H     1 <1>   0.0800 
 38 H       -5.6520     5.8320     0.2960 H     1 <1>   0.0800 
 39 H       -7.1380     4.4130     2.5450 H     1 <1>   0.0800 
 40 H       -7.4130     6.0630     2.0480 H     1 <1>   0.0800 
 41 H       -5.8830     5.6260     2.7630 H     1 <1>   0.0800 
 42 H        5.3570    -6.9380     2.0580 H     1 <1>   0.0800 
 43 H        7.0890    -6.0010    -0.2380 H     1 <1>   0.0800 
 44 H        7.6120    -6.9300     1.1460 H     1 <1>   0.0800 
 45 H        7.0490    -5.2900     1.3560 H     1 <1>   0.0800 
 46 H        5.3850    -7.8410    -0.8290 H     1 <1>   0.0800 
 47 H        4.2240    -8.3400     0.3760 H     1 <1>   0.0800 
 48 H        5.9070    -8.7700     0.5550 H     1 <1>   0.0800 
@<TRIPOS>BOND
  1   1   2  1   
  2   1   3  1   
  3   2   4  ar  
  4   2   5  ar  
  5   3   6  1   
  6   3  27  1   
  7   3  28  1   
  8   4   7  ar  
  9   5   8  ar  
 10   6   9  2   
 11   6  10  am  
 12   7  11  1   
 13   7  12  ar  
 14   8  12  ar  
 15   8  29  1   
 16  10  13  1   
 17  10  30  1   
 18  11  31  1   
 19  11  32  1   
 20  12  14  1   
 21  13  15  ar  
 22  13  16  ar  
 23  14  17  2   
 24  14  18  1   
 25  15  19  ar  
 26  15  33  1   
 27  16  20  ar  
 28  16  34  1   
 29  18  21  1   
 30  19  22  ar  
 31  19  35  1   
 32  20  22  ar  
 33  20  36  1   
 34  21  23  1   
 35  21  37  1   
 36  21  38  1   
 37  22  24  1   
 38  23  39  1   
 39  23  40  1   
 40  23  41  1   
 41  24  25  1   
 42  24  26  1   
 43  24  42  1   
 44  25  43  1   
 45  25  44  1   
 46  25  45  1   
 47  26  46  1   
 48  26  47  1   
 49  26  48  1   
@<TRIPOS>SUBSTRUCTURE
  1 ****   1 GROUP 4 **** **** 0

# MOE 2024.06 (io_trps.svl 2023.06)
