@<TRIPOS>MOLECULE
N-Cyclopentyl-2-(6-methyl-thieno[2,3-d]pyrimidin-4-ylsulfanyl)-acetamide
37 39 1 0 0 
SMALL
USER_CHARGES


@<TRIPOS>ATOM
  1 S        1.4880     0.5390    -2.2250 S.3   1 <1>  -0.0800 
  2 C        0.4460     1.5150    -1.1910 C.ar  1 <1>   0.2970 
  3 C        0.1570     0.1940    -3.3350 C.2   1 <1>  -0.1400 
  4 N        0.8560     2.1160    -0.0940 N.ar  1 <1>  -0.5670 
  5 C       -0.8300     1.5470    -1.7000 C.ar  1 <1>   0.0000 
  6 C       -0.9730     0.7910    -2.9190 C.2   1 <1>  -0.1500 
  7 C        0.4740    -0.6790    -4.5320 C.3   1 <1>  -0.0600 
  8 C       -0.1010     2.7900     0.5170 C.ar  1 <1>   0.4700 
  9 C       -1.7120     2.2940    -0.9410 C.ar  1 <1>   0.4120 
 10 N       -1.3780     2.9220     0.1650 N.ar  1 <1>  -0.6200 
 11 S       -3.4130     2.4240    -1.4690 S.3   1 <1>  -0.3320 
 12 C       -4.1970     3.5460    -0.2100 C.3   1 <1>   0.1310 
 13 C       -5.7090     3.5730    -0.3790 C.2   1 <1>   0.5690 
 14 O       -6.2340     4.5890    -0.7590 O.2   1 <1>  -0.5700 
 15 N       -6.4770     2.4940    -0.0910 N.am  1 <1>  -0.7300 
 16 C       -6.0700     1.1480     0.3470 C.3   1 <1>   0.2200 
 17 C       -6.4260     0.1490    -0.7470 C.3   1 <1>  -0.1600 
 18 C       -6.9550     0.7240     1.5120 C.3   1 <1>  -0.1600 
 19 C       -7.9180    -0.1500    -0.5680 C.3   1 <1>  -0.1600 
 20 C       -8.2570     0.2130     0.8840 C.3   1 <1>  -0.1600 
 21 H       -1.9270     0.7410    -3.4150 H     1 <1>   0.1500 
 22 H        1.2350    -0.2150    -5.1330 H     1 <1>   0.0800 
 23 H       -0.4060    -0.8200    -5.1320 H     1 <1>   0.0800 
 24 H        0.8280    -1.6390    -4.2020 H     1 <1>   0.0800 
 25 H        0.1890     3.3020     1.4210 H     1 <1>   0.1500 
 26 H       -3.7830     4.5260    -0.3590 H     1 <1>   0.0800 
 27 H       -3.9360     3.1830     0.7650 H     1 <1>   0.0800 
 28 H       -7.4770     2.5980    -0.2680 H     1 <1>   0.3700 
 29 H       -5.0240     1.1160     0.6010 H     1 <1>   0.0800 
 30 H       -5.8660    -0.7540    -0.5790 H     1 <1>   0.0800 
 31 H       -6.1910     0.5210    -1.7290 H     1 <1>   0.0800 
 32 H       -7.1180     1.5240     2.2130 H     1 <1>   0.0800 
 33 H       -6.4740    -0.0900     2.0260 H     1 <1>   0.0800 
 34 H       -8.1310    -1.1840    -0.7770 H     1 <1>   0.0800 
 35 H       -8.4960     0.4640    -1.2380 H     1 <1>   0.0800 
 36 H       -9.0010     0.9910     0.8980 H     1 <1>   0.0800 
 37 H       -8.6350    -0.6380     1.4240 H     1 <1>   0.0800 
@<TRIPOS>BOND
  1   1   2  1   
  2   1   3  1   
  3   2   4  ar  
  4   2   5  ar  
  5   3   6  2   
  6   3   7  1   
  7   4   8  ar  
  8   5   6  1   
  9   5   9  ar  
 10   6  21  1   
 11   7  22  1   
 12   7  23  1   
 13   7  24  1   
 14   8  10  ar  
 15   8  25  1   
 16   9  10  ar  
 17   9  11  1   
 18  11  12  1   
 19  12  13  1   
 20  12  26  1   
 21  12  27  1   
 22  13  14  2   
 23  13  15  am  
 24  15  16  1   
 25  15  28  1   
 26  16  17  1   
 27  16  18  1   
 28  16  29  1   
 29  17  19  1   
 30  17  30  1   
 31  17  31  1   
 32  18  20  1   
 33  18  32  1   
 34  18  33  1   
 35  19  20  1   
 36  19  34  1   
 37  19  35  1   
 38  20  36  1   
 39  20  37  1   
@<TRIPOS>SUBSTRUCTURE
  1 ****  11 GROUP 4 **** **** 0

# MOE 2024.06 (io_trps.svl 2023.06)
