@<TRIPOS>MOLECULE
1-(2,6-Dimethyl-phenyl)-5-oxo-pyrrolidine-3-carboxylic acid (4-ethoxy-phenyl)-am
50 52 1 0 0 
SMALL
USER_CHARGES


@<TRIPOS>ATOM
  1 O        2.5250    -0.8440     2.1430 O.2   1 <1>  -0.5700 
  2 C        2.4590    -0.3470     1.0480 C.2   1 <1>   0.5690 
  3 N        2.5570    -0.9890    -0.1480 N.am  1 <1>  -0.4770 
  4 C        2.3080     1.1360     0.8520 C.3   1 <1>  -0.0990 
  5 C        2.5390    -2.3760    -0.3880 C.ar  1 <1>   0.1170 
  6 C        2.4850    -0.0360    -1.2700 C.3   1 <1>   0.1400 
  7 C        2.7300     1.3290    -0.6150 C.3   1 <1>  -0.0190 
  8 C        1.3330    -3.0820    -0.3330 C.ar  1 <1>  -0.1440 
  9 C        3.7180    -3.0600    -0.7040 C.ar  1 <1>  -0.1440 
 10 C        4.2000     1.7020    -0.7520 C.2   1 <1>   0.5690 
 11 C        1.3140    -4.4380    -0.6110 C.ar  1 <1>  -0.1500 
 12 C        0.0240    -2.3960     0.0390 C.3   1 <1>  -0.0970 
 13 C        3.6760    -4.4160    -0.9800 C.ar  1 <1>  -0.1500 
 14 C        5.0700    -2.3570    -0.7370 C.3   1 <1>  -0.0960 
 15 O        4.4730     2.6300    -1.4700 O.2   1 <1>  -0.5700 
 16 N        5.1310     0.9690    -0.0650 N.am  1 <1>  -0.5470 
 17 C        2.4790    -5.1050    -0.9380 C.ar  1 <1>  -0.1500 
 18 C        6.5330     1.0420    -0.0110 C.ar  1 <1>   0.1170 
 19 C        7.3030     1.7270    -0.9460 C.ar  1 <1>  -0.1500 
 20 C        7.1850     0.3770     1.0200 C.ar  1 <1>  -0.1500 
 21 C        8.6830     1.7510    -0.8550 C.ar  1 <1>  -0.1500 
 22 C        8.5640     0.3950     1.1160 C.ar  1 <1>  -0.1500 
 23 C        9.3240     1.0800     0.1830 C.ar  1 <1>   0.0820 
 24 O       10.6720     1.0470     0.3490 O.3   1 <1>  -0.3620 
 25 C       11.5270     1.7440    -0.5260 C.3   1 <1>   0.1200 
 26 C       12.9630     1.5210    -0.0600 C.3   1 <1>  -0.2400 
 27 H        2.9200     1.6910     1.5410 H     1 <1>   0.0800 
 28 H        1.2760     1.3980     0.9930 H     1 <1>   0.0800 
 29 H        1.5020    -0.0800    -1.7060 H     1 <1>   0.0800 
 30 H        3.2200    -0.2660    -2.0240 H     1 <1>   0.0800 
 31 H        2.1370     2.0890    -1.0920 H     1 <1>   0.0800 
 32 H        0.3910    -4.9890    -0.5710 H     1 <1>   0.1500 
 33 H       -0.1690    -1.5750    -0.6260 H     1 <1>   0.0800 
 34 H        0.0830    -2.0260     1.0480 H     1 <1>   0.0800 
 35 H       -0.8030    -3.0800    -0.0200 H     1 <1>   0.0800 
 36 H        4.5760    -4.9510    -1.2270 H     1 <1>   0.1500 
 37 H        5.2710    -1.9200     0.2240 H     1 <1>   0.0800 
 38 H        5.0780    -1.5900    -1.4880 H     1 <1>   0.0800 
 39 H        5.8610    -3.0500    -0.9580 H     1 <1>   0.0800 
 40 H        4.7410     0.2280     0.5200 H     1 <1>   0.3700 
 41 H        2.4550    -6.1590    -1.1530 H     1 <1>   0.1500 
 42 H        6.8290     2.2480    -1.7580 H     1 <1>   0.1500 
 43 H        6.6150    -0.1580     1.7590 H     1 <1>   0.1500 
 44 H        9.2370     2.2930    -1.5970 H     1 <1>   0.1500 
 45 H        9.0630    -0.1210     1.9160 H     1 <1>   0.1500 
 46 H       11.2730     2.7890    -0.4900 H     1 <1>   0.0800 
 47 H       11.3870     1.3580    -1.5210 H     1 <1>   0.0800 
 48 H       13.0880     1.8960     0.9400 H     1 <1>   0.0800 
 49 H       13.6420     2.0420    -0.7100 H     1 <1>   0.0800 
 50 H       13.2000     0.4730    -0.0830 H     1 <1>   0.0800 
@<TRIPOS>BOND
  1   1   2  2   
  2   2   3  am  
  3   2   4  1   
  4   3   5  1   
  5   3   6  1   
  6   4   7  1   
  7   4  27  1   
  8   4  28  1   
  9   5   8  ar  
 10   5   9  ar  
 11   6   7  1   
 12   6  29  1   
 13   6  30  1   
 14   7  10  1   
 15   7  31  1   
 16   8  11  ar  
 17   8  12  1   
 18   9  13  ar  
 19   9  14  1   
 20  10  15  2   
 21  10  16  am  
 22  11  17  ar  
 23  11  32  1   
 24  12  33  1   
 25  12  34  1   
 26  12  35  1   
 27  13  17  ar  
 28  13  36  1   
 29  14  37  1   
 30  14  38  1   
 31  14  39  1   
 32  16  18  1   
 33  16  40  1   
 34  17  41  1   
 35  18  19  ar  
 36  18  20  ar  
 37  19  21  ar  
 38  19  42  1   
 39  20  22  ar  
 40  20  43  1   
 41  21  23  ar  
 42  21  44  1   
 43  22  23  ar  
 44  22  45  1   
 45  23  24  1   
 46  24  25  1   
 47  25  26  1   
 48  25  46  1   
 49  25  47  1   
 50  26  48  1   
 51  26  49  1   
 52  26  50  1   
@<TRIPOS>SUBSTRUCTURE
  1 ****  16 GROUP 4 **** **** 0

# MOE 2024.06 (io_trps.svl 2023.06)
