@<TRIPOS>MOLECULE
1-(2,4-Dimethyl-benzyl)-3,6-diaza-tricyclo[4.3.1.1*3,8*]undecan-9-one
46 49 1 0 0 
SMALL
USER_CHARGES


@<TRIPOS>ATOM
  1 O       -0.9670     0.2610    -0.5470 O.2   1 <1>  -0.5700 
  2 C       -1.6510    -0.6320    -0.1500 C.2   1 <1>   0.4480 
  3 C       -1.6150    -2.0560    -0.6790 C.3   1 <1>   0.0610 
  4 C       -2.7770    -0.3720     0.8130 C.3   1 <1>  -0.0190 
  5 C       -2.9040    -2.1700    -1.5100 C.3   1 <1>   0.3430 
  6 C       -1.6230    -3.0330     0.5200 C.3   1 <1>   0.1100 
  7 C       -0.4070    -2.3330    -1.6210 C.3   1 <1>  -0.0170 
  8 C       -4.0650    -0.4740    -0.0030 C.3   1 <1>   0.3430 
  9 C       -2.7120    -1.3620     1.9760 C.3   1 <1>   0.1100 
 10 N       -4.1790    -1.7460    -0.8110 N.4   1 <1>  -0.9590 
 11 N       -2.6970    -2.7430     1.4840 N.3   1 <1>  -0.8100 
 12 C        0.8880    -2.7070    -0.8960 C.ar  1 <1>  -0.1440 
 13 C       -4.7850    -2.8740    -0.0180 C.3   1 <1>   0.3430 
 14 C       -4.0070    -3.3620     1.2240 C.3   1 <1>   0.1100 
 15 C        1.3560    -4.0180    -0.8080 C.ar  1 <1>  -0.1440 
 16 C        1.6210    -1.6910    -0.3000 C.ar  1 <1>  -0.1500 
 17 C        2.5230    -4.2790    -0.1040 C.ar  1 <1>  -0.1500 
 18 C        0.6550    -5.2000    -1.4690 C.3   1 <1>  -0.0970 
 19 C        2.7820    -1.9630     0.3970 C.ar  1 <1>  -0.1500 
 20 C        3.2370    -3.2630     0.5050 C.ar  1 <1>  -0.1440 
 21 C        4.5110    -3.5730     1.2700 C.3   1 <1>  -0.0970 
 22 H       -2.6880     0.6260     1.2040 H     1 <1>   0.0800 
 23 H       -3.0050    -3.1850    -1.8590 H     1 <1>   0.0800 
 24 H       -2.7740    -1.5460    -2.3800 H     1 <1>   0.0800 
 25 H       -0.6890    -2.9510     1.0520 H     1 <1>   0.0800 
 26 H       -1.7060    -4.0510     0.1830 H     1 <1>   0.0800 
 27 H       -0.2140    -1.4720    -2.2380 H     1 <1>   0.0800 
 28 H       -0.6610    -3.1230    -2.3020 H     1 <1>   0.0800 
 29 H       -4.0830     0.3650    -0.6810 H     1 <1>   0.0800 
 30 H       -4.9140    -0.3780     0.6540 H     1 <1>   0.0800 
 31 H       -1.8040    -1.1890     2.5320 H     1 <1>   0.0800 
 32 H       -3.5370    -1.2170     2.6530 H     1 <1>   0.0800 
 33 H       -4.8610    -1.5460    -1.5580 H     1 <1>   0.4500 
 34 H       -4.9240    -3.7220    -0.6680 H     1 <1>   0.0800 
 35 H       -5.7700    -2.5830     0.3110 H     1 <1>   0.0800 
 36 H       -4.6290    -3.2190     2.0920 H     1 <1>   0.0800 
 37 H       -3.8680    -4.4270     1.1380 H     1 <1>   0.0800 
 38 H        1.3030    -0.6660    -0.3730 H     1 <1>   0.1500 
 39 H        2.8910    -5.2870    -0.0290 H     1 <1>   0.1500 
 40 H       -0.3660    -5.2680    -1.1490 H     1 <1>   0.0800 
 41 H        1.1410    -6.1250    -1.2160 H     1 <1>   0.0800 
 42 H        0.6890    -5.0910    -2.5380 H     1 <1>   0.0800 
 43 H        3.3300    -1.1570     0.8520 H     1 <1>   0.1500 
 44 H        4.4230    -4.5190     1.7740 H     1 <1>   0.0800 
 45 H        4.7040    -2.8140     2.0060 H     1 <1>   0.0800 
 46 H        5.3420    -3.6160     0.5890 H     1 <1>   0.0800 
@<TRIPOS>BOND
  1   1   2  2   
  2   2   3  1   
  3   2   4  1   
  4   3   5  1   
  5   3   6  1   
  6   3   7  1   
  7   4   8  1   
  8   4   9  1   
  9   4  22  1   
 10   5  10  1   
 11   5  23  1   
 12   5  24  1   
 13   6  11  1   
 14   6  25  1   
 15   6  26  1   
 16   7  12  1   
 17   7  27  1   
 18   7  28  1   
 19   8  10  1   
 20   8  29  1   
 21   8  30  1   
 22   9  11  1   
 23   9  31  1   
 24   9  32  1   
 25  10  13  1   
 26  10  33  1   
 27  11  14  1   
 28  12  15  ar  
 29  12  16  ar  
 30  13  14  1   
 31  13  34  1   
 32  13  35  1   
 33  14  36  1   
 34  14  37  1   
 35  15  17  ar  
 36  15  18  1   
 37  16  19  ar  
 38  16  38  1   
 39  17  20  ar  
 40  17  39  1   
 41  18  40  1   
 42  18  41  1   
 43  18  42  1   
 44  19  20  ar  
 45  19  43  1   
 46  20  21  1   
 47  21  44  1   
 48  21  45  1   
 49  21  46  1   
@<TRIPOS>SUBSTRUCTURE
  1 ****   3 GROUP 4 **** **** 0

# MOE 2024.06 (io_trps.svl 2023.06)
