@<TRIPOS>MOLECULE
2-Methoxy-5,N-dimethyl-N-(2-oxo-2-pyrrolidin-1-yl-ethyl)-benzenesulfonamide
44 45 1 0 0 
SMALL
USER_CHARGES


@<TRIPOS>ATOM
  1 S       -0.2510    -0.5000     0.9640 S.o2  1 <1>   1.4470 
  2 O       -1.5870    -0.9070     0.5820 O.2   1 <1>  -0.6500 
  3 O        0.2930    -1.0310     2.1970 O.2   1 <1>  -0.6500 
  4 N        0.7560    -1.0210    -0.2980 N.am  1 <1>  -0.8490 
  5 C       -0.1320     1.3080     0.9350 C.ar  1 <1>  -0.0090 
  6 C        1.0130    -2.4800    -0.2040 C.3   1 <1>   0.2570 
  7 C        0.2540    -0.6730    -1.6320 C.3   1 <1>   0.1160 
  8 C        1.0800     1.9600     1.1510 C.ar  1 <1>   0.0830 
  9 C       -1.2620     2.0810     0.6910 C.ar  1 <1>  -0.1500 
 10 C        2.1470    -2.9940    -1.1040 C.2   1 <1>   0.5690 
 11 O        2.1790     1.2010     1.3920 O.3   1 <1>  -0.3630 
 12 C        1.1420     3.3520     1.1170 C.ar  1 <1>  -0.1500 
 13 C       -1.2060     3.4640     0.6560 C.ar  1 <1>  -0.1440 
 14 O        1.8710    -3.7950    -1.9700 O.2   1 <1>  -0.5700 
 15 N        3.4320    -2.5560    -0.9220 N.am  1 <1>  -0.6600 
 16 C        3.3680     1.7510     1.9140 C.3   1 <1>   0.0400 
 17 C        0.0040     4.0960     0.8710 C.ar  1 <1>  -0.1500 
 18 C       -2.4600     4.2790     0.3900 C.3   1 <1>  -0.0970 
 19 C        3.8420    -1.4910     0.0210 C.3   1 <1>   0.1400 
 20 C        4.5670    -3.0040    -1.7520 C.3   1 <1>   0.1400 
 21 C        5.3630    -1.4680    -0.0640 C.3   1 <1>  -0.1600 
 22 C        5.6800    -2.0030    -1.4590 C.3   1 <1>  -0.1600 
 23 H        0.1120    -3.0200    -0.4360 H     1 <1>   0.0800 
 24 H        1.2880    -2.7350     0.8040 H     1 <1>   0.0800 
 25 H        0.0930     0.3890    -1.7000 H     1 <1>   0.0800 
 26 H       -0.6760    -1.1800    -1.8310 H     1 <1>   0.0800 
 27 H        0.9710    -0.9520    -2.3850 H     1 <1>   0.0800 
 28 H       -2.2060     1.5880     0.5270 H     1 <1>   0.1500 
 29 H        2.0660     3.8740     1.2750 H     1 <1>   0.1500 
 30 H        4.0370     0.9420     2.1440 H     1 <1>   0.0800 
 31 H        3.1360     2.2980     2.8110 H     1 <1>   0.0800 
 32 H        3.8110     2.3920     1.1730 H     1 <1>   0.0800 
 33 H        0.0640     5.1710     0.8500 H     1 <1>   0.1500 
 34 H       -3.1600     3.7160    -0.2000 H     1 <1>   0.0800 
 35 H       -2.2170     5.1810    -0.1420 H     1 <1>   0.0800 
 36 H       -2.9270     4.5420     1.3230 H     1 <1>   0.0800 
 37 H        3.4990    -1.6970     1.0210 H     1 <1>   0.0800 
 38 H        3.4350    -0.5510    -0.3130 H     1 <1>   0.0800 
 39 H        4.3000    -3.0140    -2.7960 H     1 <1>   0.0800 
 40 H        4.8550    -3.9950    -1.4440 H     1 <1>   0.0800 
 41 H        5.7630    -2.1330     0.6820 H     1 <1>   0.0800 
 42 H        5.7570    -0.4810     0.0970 H     1 <1>   0.0800 
 43 H        5.6260    -1.2040    -2.1780 H     1 <1>   0.0800 
 44 H        6.6520    -2.4600    -1.5140 H     1 <1>   0.0800 
@<TRIPOS>BOND
  1   1   2  2   
  2   1   3  2   
  3   1   4  am  
  4   1   5  1   
  5   4   6  1   
  6   4   7  1   
  7   5   8  ar  
  8   5   9  ar  
  9   6  10  1   
 10   6  23  1   
 11   6  24  1   
 12   7  25  1   
 13   7  26  1   
 14   7  27  1   
 15   8  11  1   
 16   8  12  ar  
 17   9  13  ar  
 18   9  28  1   
 19  10  14  2   
 20  10  15  am  
 21  11  16  1   
 22  12  17  ar  
 23  12  29  1   
 24  13  17  ar  
 25  13  18  1   
 26  15  19  1   
 27  15  20  1   
 28  16  30  1   
 29  16  31  1   
 30  16  32  1   
 31  17  33  1   
 32  18  34  1   
 33  18  35  1   
 34  18  36  1   
 35  19  21  1   
 36  19  37  1   
 37  19  38  1   
 38  20  22  1   
 39  20  39  1   
 40  20  40  1   
 41  21  22  1   
 42  21  41  1   
 43  21  42  1   
 44  22  43  1   
 45  22  44  1   
@<TRIPOS>SUBSTRUCTURE
  1 ****   4 GROUP 4 **** **** 0

# MOE 2024.06 (io_trps.svl 2023.06)
