@<TRIPOS>MOLECULE
2-Chloro-1-(2-methyl-piperidin-1-yl)-ethanone
25 25 1 0 0 
SMALL
USER_CHARGES


@<TRIPOS>ATOM
  1 CL       0.7000     1.1350     0.9120 Cl    1 <1>  -0.2900 
  2 C        1.4580     0.9220    -0.6690 C.3   1 <1>   0.1910 
  3 C        2.7790     0.1660    -0.5560 C.2   1 <1>   0.5690 
  4 O        2.8170    -0.8820    -1.1560 O.2   1 <1>  -0.5700 
  5 N        3.8530     0.6830     0.1490 N.am  1 <1>  -0.6600 
  6 C        5.1690     0.0080     0.4080 C.3   1 <1>   0.2200 
  7 C        3.8840     2.0900     0.6500 C.3   1 <1>   0.1400 
  8 C        6.2510     0.7300    -0.4070 C.3   1 <1>  -0.1600 
  9 C        5.2160    -1.5020     0.1660 C.3   1 <1>  -0.2400 
 10 C        4.9380     2.8780    -0.1370 C.3   1 <1>  -0.1600 
 11 C        6.3230     2.2220    -0.0450 C.3   1 <1>  -0.1600 
 12 H        1.6100     1.8920    -1.1000 H     1 <1>   0.0800 
 13 H        0.7690     0.3660    -1.2760 H     1 <1>   0.0800 
 14 H        5.3950     0.1480     1.4520 H     1 <1>   0.0800 
 15 H        4.1350     2.0850     1.6970 H     1 <1>   0.0800 
 16 H        2.9320     2.5770     0.5510 H     1 <1>   0.0800 
 17 H        6.0330     0.6160    -1.4550 H     1 <1>   0.0800 
 18 H        7.2080     0.2750    -0.2200 H     1 <1>   0.0800 
 19 H        5.1480    -1.7260    -0.8830 H     1 <1>   0.0800 
 20 H        4.4120    -1.9870     0.6910 H     1 <1>   0.0800 
 21 H        6.1440    -1.9010     0.5300 H     1 <1>   0.0800 
 22 H        4.9900     3.8830     0.2440 H     1 <1>   0.0800 
 23 H        4.6330     2.9330    -1.1680 H     1 <1>   0.0800 
 24 H        7.0110     2.7240    -0.7030 H     1 <1>   0.0800 
 25 H        6.6950     2.3220     0.9610 H     1 <1>   0.0800 
@<TRIPOS>BOND
  1   1   2  1   
  2   2   3  1   
  3   2  12  1   
  4   2  13  1   
  5   3   4  2   
  6   3   5  am  
  7   5   6  1   
  8   5   7  1   
  9   6   8  1   
 10   6   9  1   
 11   6  14  1   
 12   7  10  1   
 13   7  15  1   
 14   7  16  1   
 15   8  11  1   
 16   8  17  1   
 17   8  18  1   
 18   9  19  1   
 19   9  20  1   
 20   9  21  1   
 21  10  11  1   
 22  10  22  1   
 23  10  23  1   
 24  11  24  1   
 25  11  25  1   
@<TRIPOS>SUBSTRUCTURE
  1 ****   5 GROUP 4 **** **** 0

# MOE 2024.06 (io_trps.svl 2023.06)
