@<TRIPOS>MOLECULE
(1-Cyclohexyl-1H-benzoimidazol-5-yl)-pyridin-2-ylmethyl-amine
45 48 1 0 0 
SMALL
USER_CHARGES


@<TRIPOS>ATOM
  1 N        0.3890     0.8320    -0.0090 N.ar  1 <1>  -0.6200 
  2 C        1.5230     1.5220     0.0420 C.ar  1 <1>   0.1660 
  3 C       -0.6340     1.4500    -0.5790 C.ar  1 <1>   0.1600 
  4 C        1.6660     2.8080    -0.4600 C.ar  1 <1>  -0.1500 
  5 C        2.7250     0.8430     0.6940 C.3   1 <1>   0.3530 
  6 C       -0.5880     2.7290    -1.1060 C.ar  1 <1>  -0.1500 
  7 C        0.5920     3.4380    -1.0500 C.ar  1 <1>  -0.1500 
  8 N        3.8800     0.7840    -0.2460 N.pl3 1 <1>  -0.8690 
  9 C        4.9230    -0.0680     0.1110 C.ar  1 <1>   0.1000 
 10 C        5.5730     0.0510     1.3240 C.ar  1 <1>  -0.1500 
 11 C        5.3250    -1.0680    -0.7880 C.ar  1 <1>  -0.1500 
 12 C        6.6020    -0.8290     1.6460 C.ar  1 <1>   0.2270 
 13 C        6.3440    -1.9400    -0.4800 C.ar  1 <1>  -0.1500 
 14 N        7.3520    -0.8850     2.7810 N.2   1 <1>  -0.5650 
 15 C        6.9860    -1.8160     0.7560 C.ar  1 <1>  -0.1520 
 16 C        8.1560    -1.8680     2.5750 C.2   1 <1>   0.0360 
 17 N        8.0040    -2.4880     1.3760 N.pl3 1 <1>   0.0480 
 18 C        8.8070    -3.6440     0.9020 C.3   1 <1>   0.1760 
 19 C        9.6120    -3.2830    -0.3580 C.3   1 <1>  -0.1600 
 20 C        7.9190    -4.8810     0.6790 C.3   1 <1>  -0.1600 
 21 C       10.4340    -4.4820    -0.8520 C.3   1 <1>  -0.1600 
 22 C        8.7480    -6.0730     0.1800 C.3   1 <1>  -0.1600 
 23 C        9.5410    -5.7100    -1.0830 C.3   1 <1>  -0.1600 
 24 H       -1.5620     0.9060    -0.6290 H     1 <1>   0.1500 
 25 H        2.6170     3.3060    -0.3890 H     1 <1>   0.1500 
 26 H        2.4560    -0.1550     0.9940 H     1 <1>   0.0800 
 27 H        3.0060     1.3960     1.5730 H     1 <1>   0.0800 
 28 H       -1.4650     3.1610    -1.5520 H     1 <1>   0.1500 
 29 H        0.6730     4.4350    -1.4480 H     1 <1>   0.1500 
 30 H        3.5160     0.5790    -1.1820 H     1 <1>   0.4000 
 31 H        5.3100     0.8130     2.0300 H     1 <1>   0.1500 
 32 H        4.8190    -1.1450    -1.7320 H     1 <1>   0.1500 
 33 H        6.6400    -2.7010    -1.1780 H     1 <1>   0.1500 
 34 H        8.8990    -2.1910     3.2830 H     1 <1>   0.1500 
 35 H        9.5100    -3.8850     1.6800 H     1 <1>   0.0800 
 36 H       10.2750    -2.4640    -0.1380 H     1 <1>   0.0800 
 37 H        8.9470    -2.9730    -1.1430 H     1 <1>   0.0800 
 38 H        7.1590    -4.6610    -0.0480 H     1 <1>   0.0800 
 39 H        7.4350    -5.1470     1.6020 H     1 <1>   0.0800 
 40 H       11.1900    -4.7240    -0.1250 H     1 <1>   0.0800 
 41 H       10.9330    -4.2230    -1.7700 H     1 <1>   0.0800 
 42 H        8.0950    -6.9020    -0.0330 H     1 <1>   0.0800 
 43 H        9.4320    -6.3840     0.9520 H     1 <1>   0.0800 
 44 H       10.1510    -6.5470    -1.3780 H     1 <1>   0.0800 
 45 H        8.8550    -5.5050    -1.8880 H     1 <1>   0.0800 
@<TRIPOS>BOND
  1   1   2  ar  
  2   1   3  ar  
  3   2   4  ar  
  4   2   5  1   
  5   3   6  ar  
  6   3  24  1   
  7   4   7  ar  
  8   4  25  1   
  9   5   8  1   
 10   5  26  1   
 11   5  27  1   
 12   6   7  ar  
 13   6  28  1   
 14   7  29  1   
 15   8   9  1   
 16   8  30  1   
 17   9  10  ar  
 18   9  11  ar  
 19  10  12  ar  
 20  10  31  1   
 21  11  13  ar  
 22  11  32  1   
 23  12  14  1   
 24  12  15  ar  
 25  13  15  ar  
 26  13  33  1   
 27  14  16  2   
 28  15  17  1   
 29  16  17  1   
 30  16  34  1   
 31  17  18  1   
 32  18  19  1   
 33  18  20  1   
 34  18  35  1   
 35  19  21  1   
 36  19  36  1   
 37  19  37  1   
 38  20  22  1   
 39  20  38  1   
 40  20  39  1   
 41  21  23  1   
 42  21  40  1   
 43  21  41  1   
 44  22  23  1   
 45  22  42  1   
 46  22  43  1   
 47  23  44  1   
 48  23  45  1   
@<TRIPOS>SUBSTRUCTURE
  1 ****  11 GROUP 4 **** **** 0

# MOE 2024.06 (io_trps.svl 2023.06)
