@<TRIPOS>MOLECULE
1,3-Dimethyl-7-((E)-3-phenyl-allyl)-8-piperidin-1-ylmethyl-3,7-dihydro-purine-2,
57 60 1 0 0 
SMALL
USER_CHARGES


@<TRIPOS>ATOM
  1 O        0.8120    -0.4850     0.4500 O.2   1 <1>  -0.5700 
  2 C        1.5990     0.4390     0.4380 C.2   1 <1>   0.6900 
  3 N        1.1470     1.7340     0.2070 N.am  1 <1>  -0.4200 
  4 N        2.9480     0.2000     0.6470 N.am  1 <1>  -0.4360 
  5 C        2.0320     2.8010     0.1220 C.2   1 <1>   0.7030 
  6 C       -0.3200     1.9610     0.0140 C.3   1 <1>   0.0600 
  7 C        3.8190     1.2690     0.5540 C.2   1 <1>   0.4260 
  8 C        3.4530    -1.1770     0.9300 C.3   1 <1>   0.0600 
  9 O        1.6280     3.9300    -0.0940 O.2   1 <1>  -0.5700 
 10 C        3.4340     2.5410     0.2970 C.2   1 <1>   0.2770 
 11 N        5.1630     1.2630     0.6970 N.pl3 1 <1>  -0.7000 
 12 N        4.5970     3.3230     0.2800 N.pl3 1 <1>  -0.7640 
 13 C        5.6170     2.4980     0.5330 C.cat 1 <1>   0.6560 
 14 C        4.5570     4.7980     0.0620 C.3   1 <1>   0.4920 
 15 C        7.1280     2.7750     0.6750 C.3   1 <1>   0.2540 
 16 C        5.8780     5.2670    -0.5010 C.2   1 <1>  -0.2880 
 17 N        7.9000     1.5100     0.8400 N.3   1 <1>  -0.8100 
 18 C        6.7830     6.0140     0.1570 C.2   1 <1>  -0.1780 
 19 C        8.2530     0.9240    -0.4690 C.3   1 <1>   0.1100 
 20 C        9.1140     1.7300     1.6460 C.3   1 <1>   0.1100 
 21 C        8.0790     6.4450    -0.3190 C.ar  1 <1>   0.0280 
 22 C        8.8990    -0.4490    -0.2660 C.3   1 <1>  -0.1600 
 23 C        9.8010     0.3900     1.9250 C.3   1 <1>  -0.1600 
 24 C        8.4280     6.4190    -1.6680 C.ar  1 <1>  -0.1500 
 25 C        9.0360     6.8940     0.5880 C.ar  1 <1>  -0.1500 
 26 C       10.1430    -0.3460     0.6240 C.3   1 <1>  -0.1600 
 27 C        9.6850     6.8110    -2.0920 C.ar  1 <1>  -0.1500 
 28 C       10.2940     7.2880     0.1700 C.ar  1 <1>  -0.1500 
 29 C       10.6220     7.2450    -1.1720 C.ar  1 <1>  -0.1500 
 30 H       -0.5850     2.9860     0.2110 H     1 <1>   0.0800 
 31 H       -0.8840     1.3340     0.6840 H     1 <1>   0.0800 
 32 H       -0.5920     1.7170    -0.9990 H     1 <1>   0.0800 
 33 H        4.2360    -1.1440     1.6670 H     1 <1>   0.0800 
 34 H        3.8310    -1.6180     0.0240 H     1 <1>   0.0800 
 35 H        2.6620    -1.8000     1.3110 H     1 <1>   0.0800 
 36 H        5.8180     0.5010     0.9140 H     1 <1>   0.4500 
 37 H        3.7750     5.0540    -0.6330 H     1 <1>   0.0800 
 38 H        4.3490     5.2900     0.9980 H     1 <1>   0.0800 
 39 H        7.2610     3.3980     1.5420 H     1 <1>   0.0800 
 40 H        7.4980     3.3100    -0.1810 H     1 <1>   0.0800 
 41 H        6.0270     4.9180    -1.5070 H     1 <1>   0.1500 
 42 H        6.5750     6.3430     1.1620 H     1 <1>   0.1500 
 43 H        7.3710     0.8090    -1.0770 H     1 <1>   0.0800 
 44 H        8.9400     1.5710    -0.9900 H     1 <1>   0.0800 
 45 H        9.7920     2.3870     1.1250 H     1 <1>   0.0800 
 46 H        8.8530     2.1860     2.5870 H     1 <1>   0.0800 
 47 H        8.1850    -1.1150     0.1840 H     1 <1>   0.0800 
 48 H        9.1760    -0.8600    -1.2210 H     1 <1>   0.0800 
 49 H       10.7010     0.5600     2.4890 H     1 <1>   0.0800 
 50 H        9.1480    -0.2190     2.5270 H     1 <1>   0.0800 
 51 H        7.7150     6.0980    -2.4040 H     1 <1>   0.1500 
 52 H        8.8000     6.9380     1.6360 H     1 <1>   0.1500 
 53 H       10.9120     0.1960     0.1010 H     1 <1>   0.0800 
 54 H       10.5210    -1.3290     0.8460 H     1 <1>   0.0800 
 55 H        9.9350     6.7840    -3.1380 H     1 <1>   0.1500 
 56 H       11.0190     7.6310     0.8880 H     1 <1>   0.1500 
 57 H       11.6000     7.5510    -1.5000 H     1 <1>   0.1500 
@<TRIPOS>BOND
  1   1   2  2   
  2   2   3  am  
  3   2   4  am  
  4   3   5  am  
  5   3   6  1   
  6   4   7  1   
  7   4   8  1   
  8   5   9  2   
  9   5  10  1   
 10   6  30  1   
 11   6  31  1   
 12   6  32  1   
 13   7  10  2   
 14   7  11  1   
 15   8  33  1   
 16   8  34  1   
 17   8  35  1   
 18  10  12  1   
 19  11  13  ar  
 20  11  36  1   
 21  12  13  ar  
 22  12  14  1   
 23  13  15  1   
 24  14  16  1   
 25  14  37  1   
 26  14  38  1   
 27  15  17  1   
 28  15  39  1   
 29  15  40  1   
 30  16  18  2   
 31  16  41  1   
 32  17  19  1   
 33  17  20  1   
 34  18  21  1   
 35  18  42  1   
 36  19  22  1   
 37  19  43  1   
 38  19  44  1   
 39  20  23  1   
 40  20  45  1   
 41  20  46  1   
 42  21  24  ar  
 43  21  25  ar  
 44  22  26  1   
 45  22  47  1   
 46  22  48  1   
 47  23  26  1   
 48  23  49  1   
 49  23  50  1   
 50  24  27  ar  
 51  24  51  1   
 52  25  28  ar  
 53  25  52  1   
 54  26  53  1   
 55  26  54  1   
 56  27  29  ar  
 57  27  55  1   
 58  28  29  ar  
 59  28  56  1   
 60  29  57  1   
@<TRIPOS>SUBSTRUCTURE
  1 ****  13 GROUP 4 **** **** 0

# MOE 2024.06 (io_trps.svl 2023.06)
