@<TRIPOS>MOLECULE
1-Methanesulfonyl-2-methyl-3-(toluene-4-sulfonyl)-imidazolidine
38 39 1 0 0 
SMALL
USER_CHARGES


@<TRIPOS>ATOM
  1 S        0.2510    -1.0890    -0.8280 S.o2  1 <1>   1.4470 
  2 O        0.4430    -1.1160    -2.2620 O.2   1 <1>  -0.6500 
  3 O        0.3450    -2.3160    -0.0660 O.2   1 <1>  -0.6500 
  4 N        1.4240    -0.0630    -0.1950 N.am  1 <1>  -0.8490 
  5 C       -1.2900    -0.2260    -0.4150 C.ar  1 <1>  -0.0090 
  6 C        2.6710    -0.6730     0.1530 C.3   1 <1>   0.6310 
  7 C        1.7300     1.1580    -0.9230 C.3   1 <1>   0.1960 
  8 C       -1.5690     0.1480     0.8940 C.ar  1 <1>  -0.1500 
  9 C       -2.2260     0.0890    -1.3920 C.ar  1 <1>  -0.1500 
 10 N        3.3860     0.4990     0.5890 N.am  1 <1>  -0.8490 
 11 C        3.3360    -1.4150    -1.0190 C.3   1 <1>  -0.2400 
 12 C        3.0830     1.5640    -0.3540 C.3   1 <1>   0.1960 
 13 C       -2.7370     0.8160     1.2170 C.ar  1 <1>  -0.1500 
 14 C       -3.3960     0.7570    -1.0760 C.ar  1 <1>  -0.1500 
 15 S        5.0000     0.4040     1.0580 S.o2  1 <1>   1.3330 
 16 C       -3.6590     1.1240     0.2320 C.ar  1 <1>  -0.1440 
 17 O        5.3400     1.6980     1.5990 O.2   1 <1>  -0.6500 
 18 O        5.7820    -0.1230    -0.0340 O.2   1 <1>  -0.6500 
 19 C        4.9790    -0.7620     2.4040 C.3   1 <1>  -0.1350 
 20 C       -4.9410     1.8580     0.5820 C.3   1 <1>  -0.0970 
 21 H        2.5230    -1.3510     0.9790 H     1 <1>   0.0800 
 22 H        0.9820     1.9110    -0.7430 H     1 <1>   0.0800 
 23 H        1.8160     0.9760    -1.9820 H     1 <1>   0.0800 
 24 H       -0.8600    -0.0860     1.6710 H     1 <1>   0.1500 
 25 H       -2.0380    -0.1910    -2.4160 H     1 <1>   0.1500 
 26 H        3.5820    -0.7550    -1.8300 H     1 <1>   0.0800 
 27 H        2.7060    -2.2000    -1.3890 H     1 <1>   0.0800 
 28 H        4.2310    -1.9030    -0.6850 H     1 <1>   0.0800 
 29 H        3.0350     2.5130     0.1520 H     1 <1>   0.0800 
 30 H        3.8220     1.6100    -1.1370 H     1 <1>   0.0800 
 31 H       -2.9250     1.0950     2.2400 H     1 <1>   0.1500 
 32 H       -4.1020     0.9890    -1.8550 H     1 <1>   0.1500 
 33 H        4.3030    -0.4300     3.1670 H     1 <1>   0.0800 
 34 H        5.9610    -0.8430     2.8290 H     1 <1>   0.0800 
 35 H        4.6740    -1.7300     2.0610 H     1 <1>   0.0800 
 36 H       -5.2600     1.6010     1.5760 H     1 <1>   0.0800 
 37 H       -5.7260     1.5950    -0.1030 H     1 <1>   0.0800 
 38 H       -4.7770     2.9200     0.5330 H     1 <1>   0.0800 
@<TRIPOS>BOND
  1   1   2  2   
  2   1   3  2   
  3   1   4  am  
  4   1   5  1   
  5   4   6  1   
  6   4   7  1   
  7   5   8  ar  
  8   5   9  ar  
  9   6  10  1   
 10   6  11  1   
 11   6  21  1   
 12   7  12  1   
 13   7  22  1   
 14   7  23  1   
 15   8  13  ar  
 16   8  24  1   
 17   9  14  ar  
 18   9  25  1   
 19  10  12  1   
 20  10  15  am  
 21  11  26  1   
 22  11  27  1   
 23  11  28  1   
 24  12  29  1   
 25  12  30  1   
 26  13  16  ar  
 27  13  31  1   
 28  14  16  ar  
 29  14  32  1   
 30  15  17  2   
 31  15  18  2   
 32  15  19  1   
 33  16  20  1   
 34  19  33  1   
 35  19  34  1   
 36  19  35  1   
 37  20  36  1   
 38  20  37  1   
 39  20  38  1   
@<TRIPOS>SUBSTRUCTURE
  1 ****   4 GROUP 4 **** **** 0

# MOE 2024.06 (io_trps.svl 2023.06)
