@<TRIPOS>MOLECULE
1-(4-Ethoxy-3-methyl-benzenesulfonyl)-piperidine-4-carboxylic acid propylamide
53 54 1 0 0 
SMALL
USER_CHARGES


@<TRIPOS>ATOM
  1 S       -0.2700     0.2990     2.4610 S.o2  1 <1>   1.4470 
  2 O        0.0090    -0.6100     3.5510 O.2   1 <1>  -0.6500 
  3 O       -0.6850     1.6540     2.7610 O.2   1 <1>  -0.6500 
  4 N        1.1500     0.4290     1.5410 N.am  1 <1>  -0.8490 
  5 C       -1.4360    -0.4820     1.3120 C.ar  1 <1>  -0.0090 
  6 C        2.3130     0.6940     2.3910 C.3   1 <1>   0.1960 
  7 C        1.0210     1.4260     0.4740 C.3   1 <1>   0.1960 
  8 C       -2.6860     0.0720     1.0610 C.ar  1 <1>  -0.1500 
  9 C       -1.1030    -1.6570     0.6490 C.ar  1 <1>  -0.1500 
 10 C        3.5990     0.6590     1.5590 C.3   1 <1>  -0.1600 
 11 C        2.2590     1.4020    -0.4250 C.3   1 <1>  -0.1600 
 12 C       -3.5790    -0.5140     0.1780 C.ar  1 <1>  -0.1430 
 13 C       -1.9810    -2.2570    -0.2360 C.ar  1 <1>  -0.1500 
 14 C        3.5400     1.6520     0.3880 C.3   1 <1>  -0.0190 
 15 C       -3.2270    -1.6880    -0.4800 C.ar  1 <1>   0.0830 
 16 C       -4.9360     0.1310    -0.0650 C.3   1 <1>  -0.0970 
 17 C        4.7920     1.5650    -0.4830 C.2   1 <1>   0.5690 
 18 O       -4.1310    -2.2260    -1.3390 O.3   1 <1>  -0.3630 
 19 O        5.0020     0.5630    -1.1240 O.2   1 <1>  -0.5700 
 20 N        5.6400     2.6270    -0.5100 N.am  1 <1>  -0.7300 
 21 C       -3.8780    -3.4260    -2.0320 C.3   1 <1>   0.1200 
 22 C        6.8960     2.6900    -1.2880 C.3   1 <1>   0.1400 
 23 C       -5.0990    -3.7400    -2.8920 C.3   1 <1>  -0.2400 
 24 C        8.0410     3.0810    -0.3550 C.3   1 <1>  -0.1600 
 25 C        9.3700     3.1700    -1.1130 C.3   1 <1>  -0.2400 
 26 H        2.3830    -0.0600     3.1580 H     1 <1>   0.0800 
 27 H        2.2030     1.6530     2.8720 H     1 <1>   0.0800 
 28 H        0.8970     2.4090     0.9000 H     1 <1>   0.0800 
 29 H        0.1530     1.2090    -0.1260 H     1 <1>   0.0800 
 30 H       -2.9600     0.9800     1.5710 H     1 <1>   0.1500 
 31 H       -0.1400    -2.1040     0.8310 H     1 <1>   0.1500 
 32 H        3.7380    -0.3400     1.1820 H     1 <1>   0.0800 
 33 H        4.4380     0.8890     2.1900 H     1 <1>   0.0800 
 34 H        2.1620     2.1510    -1.1900 H     1 <1>   0.0800 
 35 H        2.3150     0.4430    -0.9110 H     1 <1>   0.0800 
 36 H       -1.6750    -3.1630    -0.7230 H     1 <1>   0.1500 
 37 H        3.4840     2.6450     0.7960 H     1 <1>   0.0800 
 38 H       -5.0530     1.0280     0.5160 H     1 <1>   0.0800 
 39 H       -5.7170    -0.5570     0.2040 H     1 <1>   0.0800 
 40 H       -5.0400     0.3790    -1.1060 H     1 <1>   0.0800 
 41 H        5.4290     3.4580     0.0410 H     1 <1>   0.3700 
 42 H       -3.7090    -4.2070    -1.3110 H     1 <1>   0.0800 
 43 H       -3.0060    -3.2870    -2.6470 H     1 <1>   0.0800 
 44 H        6.7890     3.4180    -2.0740 H     1 <1>   0.0800 
 45 H        7.1000     1.7320    -1.7380 H     1 <1>   0.0800 
 46 H       -5.9680    -3.8600    -2.2690 H     1 <1>   0.0800 
 47 H       -4.9370    -4.6530    -3.4350 H     1 <1>   0.0800 
 48 H       -5.2690    -2.9460    -3.5970 H     1 <1>   0.0800 
 49 H        8.1310     2.3420     0.4230 H     1 <1>   0.0800 
 50 H        7.8310     4.0350     0.0960 H     1 <1>   0.0800 
 51 H        9.6130     2.2210    -1.5590 H     1 <1>   0.0800 
 52 H       10.1620     3.4410    -0.4370 H     1 <1>   0.0800 
 53 H        9.3140     3.9130    -1.8890 H     1 <1>   0.0800 
@<TRIPOS>BOND
  1   1   2  2   
  2   1   3  2   
  3   1   4  am  
  4   1   5  1   
  5   4   6  1   
  6   4   7  1   
  7   5   8  ar  
  8   5   9  ar  
  9   6  10  1   
 10   6  26  1   
 11   6  27  1   
 12   7  11  1   
 13   7  28  1   
 14   7  29  1   
 15   8  12  ar  
 16   8  30  1   
 17   9  13  ar  
 18   9  31  1   
 19  10  14  1   
 20  10  32  1   
 21  10  33  1   
 22  11  14  1   
 23  11  34  1   
 24  11  35  1   
 25  12  15  ar  
 26  12  16  1   
 27  13  15  ar  
 28  13  36  1   
 29  14  17  1   
 30  14  37  1   
 31  15  18  1   
 32  16  38  1   
 33  16  39  1   
 34  16  40  1   
 35  17  19  2   
 36  17  20  am  
 37  18  21  1   
 38  20  22  1   
 39  20  41  1   
 40  21  23  1   
 41  21  42  1   
 42  21  43  1   
 43  22  24  1   
 44  22  44  1   
 45  22  45  1   
 46  23  46  1   
 47  23  47  1   
 48  23  48  1   
 49  24  25  1   
 50  24  49  1   
 51  24  50  1   
 52  25  51  1   
 53  25  52  1   
 54  25  53  1   
@<TRIPOS>SUBSTRUCTURE
  1 ****   7 GROUP 4 **** **** 0

# MOE 2024.06 (io_trps.svl 2023.06)
