@<TRIPOS>MOLECULE
N-Allyl-4-chloro-3-(morpholine-4-sulfonyl)-benzamide
39 40 1 0 0 
SMALL
USER_CHARGES


@<TRIPOS>ATOM
  1 CL       0.5960     0.2180    -2.4550 Cl    1 <1>  -0.1770 
  2 C        1.7650    -0.7220    -1.5650 C.ar  1 <1>   0.1770 
  3 C        1.4860    -1.9950    -1.0820 C.ar  1 <1>  -0.0090 
  4 C        2.9900    -0.1180    -1.3470 C.ar  1 <1>  -0.1500 
  5 S       -0.1050    -2.8300    -1.3170 S.o2  1 <1>   1.4470 
  6 C        2.4880    -2.6250    -0.3520 C.ar  1 <1>  -0.1500 
  7 C        3.9660    -0.7770    -0.6250 C.ar  1 <1>  -0.1500 
  8 O        0.1290    -4.2550    -1.2240 O.2   1 <1>  -0.6500 
  9 O       -0.8470    -2.3400    -2.4560 O.2   1 <1>  -0.6500 
 10 N       -0.9720    -2.3970     0.0740 N.am  1 <1>  -0.8490 
 11 C        3.7360    -2.0510    -0.1080 C.ar  1 <1>   0.0860 
 12 C       -1.5400    -1.0390     0.0030 C.3   1 <1>   0.1960 
 13 C       -2.0510    -3.3570     0.3590 C.3   1 <1>   0.1960 
 14 C        4.7410    -2.7610     0.6640 C.2   1 <1>   0.5440 
 15 C       -2.3290    -0.7000     1.2810 C.3   1 <1>   0.1200 
 16 C       -2.8340    -2.9590     1.6240 C.3   1 <1>   0.1200 
 17 O        4.4150    -3.5370     1.5380 O.2   1 <1>  -0.5700 
 18 N        6.0690    -2.5810     0.4160 N.am  1 <1>  -0.7300 
 19 O       -3.3260    -1.6540     1.5100 O.3   1 <1>  -0.5600 
 20 C        7.1500    -3.2570     1.1430 C.3   1 <1>   0.2780 
 21 C        8.3820    -2.3890     1.0150 C.2   1 <1>  -0.2880 
 22 C        9.4990    -2.7210     0.3590 C.2   1 <1>  -0.3000 
 23 H        3.1720     0.8680    -1.7390 H     1 <1>   0.1500 
 24 H        2.2970    -3.6080     0.0520 H     1 <1>   0.1500 
 25 H        4.9120    -0.2930    -0.4510 H     1 <1>   0.1500 
 26 H       -2.1990    -0.9510    -0.8450 H     1 <1>   0.0800 
 27 H       -0.7490    -0.3200    -0.1110 H     1 <1>   0.0800 
 28 H       -1.6340    -4.3380     0.5120 H     1 <1>   0.0800 
 29 H       -2.7290    -3.4100    -0.4770 H     1 <1>   0.0800 
 30 H       -2.8090     0.2570     1.1790 H     1 <1>   0.0800 
 31 H       -1.6740    -0.6730     2.1340 H     1 <1>   0.0800 
 32 H       -2.1990    -3.0140     2.4910 H     1 <1>   0.0800 
 33 H       -3.6730    -3.6160     1.7640 H     1 <1>   0.0800 
 34 H        6.3830    -2.0520    -0.3970 H     1 <1>   0.3700 
 35 H        7.3190    -4.2270     0.7070 H     1 <1>   0.0800 
 36 H        6.8820    -3.3840     2.1790 H     1 <1>   0.0800 
 37 H        8.2660    -1.4470     1.5230 H     1 <1>   0.1500 
 38 H       10.3630    -2.0830     0.2860 H     1 <1>   0.1500 
 39 H        9.6470    -3.6540    -0.1580 H     1 <1>   0.1500 
@<TRIPOS>BOND
  1   1   2  1   
  2   2   3  ar  
  3   2   4  ar  
  4   3   5  1   
  5   3   6  ar  
  6   4   7  ar  
  7   4  23  1   
  8   5   8  2   
  9   5   9  2   
 10   5  10  am  
 11   6  11  ar  
 12   6  24  1   
 13   7  11  ar  
 14   7  25  1   
 15  10  12  1   
 16  10  13  1   
 17  11  14  1   
 18  12  15  1   
 19  12  26  1   
 20  12  27  1   
 21  13  16  1   
 22  13  28  1   
 23  13  29  1   
 24  14  17  2   
 25  14  18  am  
 26  15  19  1   
 27  15  30  1   
 28  15  31  1   
 29  16  19  1   
 30  16  32  1   
 31  16  33  1   
 32  18  20  1   
 33  18  34  1   
 34  20  21  1   
 35  20  35  1   
 36  20  36  1   
 37  21  22  2   
 38  21  37  1   
 39  22  38  1   
 40  22  39  1   
@<TRIPOS>SUBSTRUCTURE
  1 ****   6 GROUP 4 **** **** 0

# MOE 2024.06 (io_trps.svl 2023.06)
