@<TRIPOS>MOLECULE
2-(Tetrahydro-furan-2-ylmethoxy)-benzaldehyde
29 30 1 0 0 
SMALL
USER_CHARGES


@<TRIPOS>ATOM
  1 O        0.2080     1.0740     1.3990 O.2   1 <1>  -0.5700 
  2 C        1.3040     0.6910     1.0740 C.2   1 <1>   0.4240 
  3 C        2.2790     1.3910     0.2730 C.ar  1 <1>   0.0860 
  4 C        1.9650     2.3950    -0.6570 C.ar  1 <1>   0.0830 
  5 C        3.6300     1.0590     0.4130 C.ar  1 <1>  -0.1500 
  6 O        0.6950     2.7510    -0.9020 O.3   1 <1>  -0.3630 
  7 C        2.9540     3.0260    -1.3950 C.ar  1 <1>  -0.1500 
  8 C        4.6170     1.6920    -0.3190 C.ar  1 <1>  -0.1500 
  9 C        0.1300     3.7520    -0.0780 C.3   1 <1>   0.1200 
 10 C        4.2800     2.6810    -1.2270 C.ar  1 <1>  -0.1500 
 11 C       -1.3980     3.7060    -0.1820 C.3   1 <1>   0.2000 
 12 O       -1.8260     4.1790    -1.4190 O.3   1 <1>  -0.5600 
 13 C       -2.1120     4.6050     0.8180 C.3   1 <1>  -0.1600 
 14 C       -3.1660     4.5380    -1.3440 C.3   1 <1>   0.1200 
 15 C       -3.4120     4.9490     0.1070 C.3   1 <1>  -0.1600 
 16 H        1.6100    -0.2710     1.4420 H     1 <1>   0.0600 
 17 H        3.9150     0.2930     1.1130 H     1 <1>   0.1500 
 18 H        2.6730     3.7840    -2.1060 H     1 <1>   0.1500 
 19 H        5.6510     1.4190    -0.1870 H     1 <1>   0.1500 
 20 H        0.5040     4.7090    -0.3910 H     1 <1>   0.0800 
 21 H        0.4280     3.5640     0.9370 H     1 <1>   0.0800 
 22 H        5.0460     3.1750    -1.8000 H     1 <1>   0.1500 
 23 H       -1.7420     2.6910    -0.0740 H     1 <1>   0.0800 
 24 H       -1.5340     5.4980     0.9850 H     1 <1>   0.0800 
 25 H       -2.2710     4.1020     1.7550 H     1 <1>   0.0800 
 26 H       -3.7560     3.6780    -1.6120 H     1 <1>   0.0800 
 27 H       -3.3460     5.3420    -2.0360 H     1 <1>   0.0800 
 28 H       -3.6330     6.0000     0.1770 H     1 <1>   0.0800 
 29 H       -4.2380     4.3880     0.5080 H     1 <1>   0.0800 
@<TRIPOS>BOND
  1   1   2  2   
  2   2   3  1   
  3   2  16  1   
  4   3   4  ar  
  5   3   5  ar  
  6   4   6  1   
  7   4   7  ar  
  8   5   8  ar  
  9   5  17  1   
 10   6   9  1   
 11   7  10  ar  
 12   7  18  1   
 13   8  10  ar  
 14   8  19  1   
 15   9  11  1   
 16   9  20  1   
 17   9  21  1   
 18  10  22  1   
 19  11  12  1   
 20  11  13  1   
 21  11  23  1   
 22  12  14  1   
 23  13  15  1   
 24  13  24  1   
 25  13  25  1   
 26  14  15  1   
 27  14  26  1   
 28  14  27  1   
 29  15  28  1   
 30  15  29  1   
@<TRIPOS>SUBSTRUCTURE
  1 ****   6 GROUP 4 **** **** 0

# MOE 2024.06 (io_trps.svl 2023.06)
