@<TRIPOS>MOLECULE
8-[4-(4-Fluoro-phenyl)-piperazin-1-ylmethyl]-3-methyl-3,7-dihydro-purine-2,6-dio
45 48 1 0 0 
SMALL
USER_CHARGES


@<TRIPOS>ATOM
  1 F       -0.4410     0.6200     0.4110 F     1 <1>  -0.1900 
  2 C       -1.0720     1.7660     0.3690 C.ar  1 <1>   0.1900 
  3 C       -2.1340     1.9110    -0.5040 C.ar  1 <1>  -0.1500 
  4 C       -0.6520     2.7890     1.1980 C.ar  1 <1>  -0.1500 
  5 C       -2.7970     3.1260    -0.5420 C.ar  1 <1>  -0.1500 
  6 C       -1.3260     3.9970     1.1470 C.ar  1 <1>  -0.1500 
  7 C       -2.3990     4.1780     0.2810 C.ar  1 <1>   0.1000 
  8 N       -3.0500     5.4040     0.2570 N.pl3 1 <1>  -0.8380 
  9 C       -2.9470     6.1890    -1.0080 C.3   1 <1>   0.2090 
 10 C       -4.4300     5.4290     0.8220 C.3   1 <1>   0.2090 
 11 C       -3.4930     7.6180    -0.8180 C.3   1 <1>   0.1100 
 12 C       -4.9410     6.8740     0.9680 C.3   1 <1>   0.1100 
 13 N       -4.8870     7.6230    -0.3160 N.3   1 <1>  -0.8100 
 14 C       -5.3610     9.0090    -0.1210 C.3   1 <1>   0.2900 
 15 C       -6.8610     9.0240     0.1200 C.2   1 <1>   0.0070 
 16 N       -7.6750     8.1810    -0.5630 N.pl3 1 <1>   0.0330 
 17 N       -7.4850     9.7830     0.9590 N.2   1 <1>  -0.5650 
 18 C       -8.9090     8.4330    -0.1040 C.2   1 <1>  -0.0880 
 19 C       -8.7990     9.4200     0.8320 C.2   1 <1>   0.1410 
 20 N      -10.1390     7.8510    -0.4350 N.am  1 <1>  -0.4240 
 21 C       -9.9890     9.8850     1.4980 C.2   1 <1>   0.7160 
 22 C      -11.2820     8.3010     0.2180 C.2   1 <1>   0.6900 
 23 C      -10.2070     6.7800    -1.4640 C.3   1 <1>   0.0600 
 24 O      -10.0360    10.7560     2.3490 O.2   1 <1>  -0.5700 
 25 N      -11.1690     9.2930     1.1470 N.am  1 <1>  -0.4900 
 26 O      -12.3820     7.8420    -0.0060 O.2   1 <1>  -0.5700 
 27 H       -2.4300     1.0910    -1.1330 H     1 <1>   0.1500 
 28 H        0.1780     2.6400     1.8640 H     1 <1>   0.1500 
 29 H       -3.6260     3.2660    -1.2090 H     1 <1>   0.1500 
 30 H       -1.0300     4.8170     1.7760 H     1 <1>   0.1500 
 31 H       -3.5030     5.6960    -1.7860 H     1 <1>   0.0800 
 32 H       -1.9150     6.2360    -1.3100 H     1 <1>   0.0800 
 33 H       -4.4250     4.9520     1.7870 H     1 <1>   0.0800 
 34 H       -5.0940     4.8790     0.1790 H     1 <1>   0.0800 
 35 H       -3.4520     8.1290    -1.7640 H     1 <1>   0.0800 
 36 H       -2.8520     8.1380    -0.1270 H     1 <1>   0.0800 
 37 H       -4.3390     7.3740     1.7090 H     1 <1>   0.0800 
 38 H       -5.9520     6.8440     1.3330 H     1 <1>   0.0800 
 39 H       -5.1570     9.5890    -1.0040 H     1 <1>   0.0800 
 40 H       -4.8550     9.4700     0.7110 H     1 <1>   0.0800 
 41 H       -7.3510     7.4780    -1.2320 H     1 <1>   0.2700 
 42 H       -9.8400     7.1570    -2.4010 H     1 <1>   0.0800 
 43 H      -11.2200     6.4430    -1.6020 H     1 <1>   0.0800 
 44 H       -9.6060     5.9430    -1.1530 H     1 <1>   0.0800 
 45 H      -12.0120     9.6110     1.6090 H     1 <1>   0.3700 
@<TRIPOS>BOND
  1   1   2  1   
  2   2   3  ar  
  3   2   4  ar  
  4   3   5  ar  
  5   3  27  1   
  6   4   6  ar  
  7   4  28  1   
  8   5   7  ar  
  9   5  29  1   
 10   6   7  ar  
 11   6  30  1   
 12   7   8  1   
 13   8   9  1   
 14   8  10  1   
 15   9  11  1   
 16   9  31  1   
 17   9  32  1   
 18  10  12  1   
 19  10  33  1   
 20  10  34  1   
 21  11  13  1   
 22  11  35  1   
 23  11  36  1   
 24  12  13  1   
 25  12  37  1   
 26  12  38  1   
 27  13  14  1   
 28  14  15  1   
 29  14  39  1   
 30  14  40  1   
 31  15  16  1   
 32  15  17  2   
 33  16  18  1   
 34  16  41  1   
 35  17  19  1   
 36  18  19  2   
 37  18  20  1   
 38  19  21  1   
 39  20  22  am  
 40  20  23  1   
 41  21  24  2   
 42  21  25  am  
 43  22  25  am  
 44  22  26  2   
 45  23  42  1   
 46  23  43  1   
 47  23  44  1   
 48  25  45  1   
@<TRIPOS>SUBSTRUCTURE
  1 ****  12 GROUP 4 **** **** 0

# MOE 2024.06 (io_trps.svl 2023.06)
