@<TRIPOS>MOLECULE
6-(4-Dimethylamino-6-pyrrolidin-1-yl-[1,3,5]triazin-2-yloxy)-2-methyl-2H-pyridaz
42 44 1 0 0 
SMALL
USER_CHARGES


@<TRIPOS>ATOM
  1 O       -0.6910     0.4310    -1.1480 O.2   1 <1>  -0.5700 
  2 C       -1.7720     0.9790    -0.9590 C.2   1 <1>   0.6160 
  3 N       -2.0310     1.6990     0.2040 N.am  1 <1>  -0.2980 
  4 C       -2.8160     0.9100    -1.9140 C.2   1 <1>  -0.1360 
  5 N       -3.2290     2.3280     0.4770 N.2   1 <1>  -0.5120 
  6 C       -0.9780     1.8150     1.2380 C.3   1 <1>   0.0600 
  7 C       -3.9970     1.5260    -1.6480 C.2   1 <1>  -0.1360 
  8 C       -4.1650     2.2200    -0.4170 C.2   1 <1>   0.5860 
  9 O       -5.3390     2.8380    -0.1760 O.3   1 <1>  -0.2320 
 10 C       -6.4890     2.1540    -0.1250 C.ar  1 <1>   0.7020 
 11 N       -6.4420     0.8500    -0.0590 N.ar  1 <1>  -0.6200 
 12 N       -7.5590     2.8900    -0.1680 N.ar  1 <1>  -0.6200 
 13 C       -7.6190     0.2800    -0.0260 C.ar  1 <1>   0.7200 
 14 C       -8.6780     2.2080    -0.1310 C.ar  1 <1>   0.7200 
 15 N       -8.7650     0.9050    -0.0650 N.ar  1 <1>  -0.6200 
 16 N       -7.6430    -1.0890     0.0420 N.pl3 1 <1>  -0.8380 
 17 N       -9.8550     2.9260    -0.1710 N.pl3 1 <1>  -0.8380 
 18 C       -8.8920    -1.8740     0.1340 C.3   1 <1>   0.2090 
 19 C       -6.4610    -1.9180     0.3690 C.3   1 <1>   0.2090 
 20 C       -9.8940     4.3850    -0.4760 C.3   1 <1>   0.1290 
 21 C      -11.1760     2.3040     0.1310 C.3   1 <1>   0.1290 
 22 C       -8.4270    -3.3190     0.2630 C.3   1 <1>  -0.1600 
 23 C       -7.0420    -3.2250     0.8960 C.3   1 <1>  -0.1600 
 24 H       -2.6200     0.3660    -2.8170 H     1 <1>   0.1500 
 25 H       -0.7060     0.8330     1.5840 H     1 <1>   0.0800 
 26 H       -1.3390     2.3970     2.0670 H     1 <1>   0.0800 
 27 H       -0.1130     2.2940     0.8160 H     1 <1>   0.0800 
 28 H       -4.8210     1.5050    -2.3370 H     1 <1>   0.1500 
 29 H       -9.5020    -1.7260    -0.7410 H     1 <1>   0.0800 
 30 H       -9.4360    -1.5710     1.0130 H     1 <1>   0.0800 
 31 H       -5.8370    -1.4400     1.1060 H     1 <1>   0.0800 
 32 H       -5.8950    -2.0890    -0.5300 H     1 <1>   0.0800 
 33 H       -9.8200     4.9460     0.4390 H     1 <1>   0.0800 
 34 H      -10.8150     4.6350    -0.9730 H     1 <1>   0.0800 
 35 H       -9.0780     4.6600    -1.1220 H     1 <1>   0.0800 
 36 H      -11.0580     1.4630     0.7940 H     1 <1>   0.0800 
 37 H      -11.6320     1.9670    -0.7830 H     1 <1>   0.0800 
 38 H      -11.8220     3.0190     0.6090 H     1 <1>   0.0800 
 39 H       -8.3510    -3.7470    -0.7220 H     1 <1>   0.0800 
 40 H       -9.1100    -3.9070     0.8500 H     1 <1>   0.0800 
 41 H       -7.1330    -3.1550     1.9660 H     1 <1>   0.0800 
 42 H       -6.4180    -4.0660     0.6510 H     1 <1>   0.0800 
@<TRIPOS>BOND
  1   1   2  2   
  2   2   3  am  
  3   2   4  1   
  4   3   5  1   
  5   3   6  1   
  6   4   7  2   
  7   4  24  1   
  8   5   8  2   
  9   6  25  1   
 10   6  26  1   
 11   6  27  1   
 12   7   8  1   
 13   7  28  1   
 14   8   9  1   
 15   9  10  1   
 16  10  11  ar  
 17  10  12  ar  
 18  11  13  ar  
 19  12  14  ar  
 20  13  15  ar  
 21  13  16  1   
 22  14  15  ar  
 23  14  17  1   
 24  16  18  1   
 25  16  19  1   
 26  17  20  1   
 27  17  21  1   
 28  18  22  1   
 29  18  29  1   
 30  18  30  1   
 31  19  23  1   
 32  19  31  1   
 33  19  32  1   
 34  20  33  1   
 35  20  34  1   
 36  20  35  1   
 37  21  36  1   
 38  21  37  1   
 39  21  38  1   
 40  22  23  1   
 41  22  39  1   
 42  22  40  1   
 43  23  41  1   
 44  23  42  1   
@<TRIPOS>SUBSTRUCTURE
  1 ****  11 GROUP 4 **** **** 0

# MOE 2024.06 (io_trps.svl 2023.06)
