@<TRIPOS>MOLECULE
8-Allylamino-7-(2-hydroxy-3-o-tolyloxy-propyl)-3-methyl-3,7-dihydro-purine-2,6-d
52 54 1 0 0 
SMALL
USER_CHARGES


@<TRIPOS>ATOM
  1 O        1.0110     0.9950    -2.3440 O.2   1 <1>  -0.5750 
  2 C        1.9890     1.3920    -1.7560 C.2   1 <1>   0.6860 
  3 N        2.8760     0.5290    -1.1280 N.am  1 <1>  -0.4420 
  4 N        2.2230     2.7350    -1.7170 N.am  1 <1>  -0.4950 
  5 C        3.9810     1.0870    -0.5010 C.2   1 <1>   0.4210 
  6 C        2.6540    -0.9470    -1.1410 C.3   1 <1>   0.0520 
  7 C        3.3010     3.3010    -1.1000 C.2   1 <1>   0.6990 
  8 N        4.9840     0.4380     0.1490 N.pl3 1 <1>  -0.7040 
  9 C        4.2300     2.4170    -0.4580 C.2   1 <1>   0.2710 
 10 O        3.4280     4.5090    -1.1250 O.2   1 <1>  -0.5750 
 11 C        5.8540     1.3480     0.5780 C.cat 1 <1>   1.0690 
 12 N        5.4330     2.5730     0.2570 N.pl3 1 <1>  -0.7670 
 13 N        6.9790     1.0700     1.2150 N.pl3 1 <1>  -0.7180 
 14 C        6.0330     3.9000     0.6190 C.3   1 <1>   0.3480 
 15 C        7.5320    -0.2300     1.6090 C.3   1 <1>   0.3000 
 16 C        7.3240     4.2110    -0.1630 C.3   1 <1>   0.1930 
 17 C        8.5510    -0.6130     0.5640 C.2   1 <1>  -0.2950 
 18 O        8.2900     3.2550     0.1600 O.3   1 <1>  -0.6840 
 19 C        7.8570     5.6220     0.1570 C.3   1 <1>   0.1130 
 20 C        9.8640    -0.7310     0.7820 C.2   1 <1>  -0.3060 
 21 O        8.8820     6.0200    -0.7400 O.3   1 <1>  -0.3680 
 22 C       10.0030     5.2730    -0.8510 C.ar  1 <1>   0.0750 
 23 C       10.9290     5.1480     0.1840 C.ar  1 <1>  -0.1510 
 24 C       10.1860     4.5850    -2.0410 C.ar  1 <1>  -0.1570 
 25 C       11.9990     4.2820     0.0210 C.ar  1 <1>  -0.1570 
 26 C       10.8310     5.9400     1.4810 C.3   1 <1>  -0.1040 
 27 C       11.2610     3.7300    -2.1930 C.ar  1 <1>  -0.1570 
 28 C       12.1620     3.5720    -1.1560 C.ar  1 <1>  -0.1570 
 29 H        1.5510     3.3400    -2.1860 H     1 <1>   0.3640 
 30 H        1.6730    -1.1830    -1.5190 H     1 <1>   0.0720 
 31 H        2.7310    -1.3410    -0.1430 H     1 <1>   0.0720 
 32 H        3.3850    -1.4200    -1.7730 H     1 <1>   0.0720 
 33 H        5.0970    -0.5650     0.2520 H     1 <1>   0.4450 
 34 H        7.6960     1.8100     1.1450 H     1 <1>   0.4450 
 35 H        6.2490     3.9200     1.6740 H     1 <1>   0.0720 
 36 H        5.3190     4.6820     0.4300 H     1 <1>   0.0720 
 37 H        6.7610    -0.9790     1.6780 H     1 <1>   0.0720 
 38 H        8.0050    -0.1380     2.5730 H     1 <1>   0.0720 
 39 H        7.1230     4.1490    -1.2190 H     1 <1>   0.0720 
 40 H        8.1210    -0.7900    -0.4080 H     1 <1>   0.1430 
 41 H        9.1580     3.5440    -0.2260 H     1 <1>   0.3940 
 42 H        8.2230     5.6790     1.1650 H     1 <1>   0.0720 
 43 H        7.0660     6.3430     0.0450 H     1 <1>   0.0720 
 44 H       10.5770    -1.0060     0.0210 H     1 <1>   0.1430 
 45 H       10.3480    -0.5670     1.7310 H     1 <1>   0.1430 
 46 H        9.4840     4.7190    -2.8440 H     1 <1>   0.1430 
 47 H       12.7200     4.1600     0.8100 H     1 <1>   0.1430 
 48 H       10.2870     5.3780     2.2180 H     1 <1>   0.0720 
 49 H       10.3370     6.8800     1.3130 H     1 <1>   0.0720 
 50 H       11.8130     6.1480     1.8650 H     1 <1>   0.0720 
 51 H       11.3990     3.1920    -3.1150 H     1 <1>   0.1430 
 52 H       12.9990     2.9050    -1.2690 H     1 <1>   0.1430 
@<TRIPOS>BOND
  1   1   2  2   
  2   2   3  am  
  3   2   4  am  
  4   3   5  1   
  5   3   6  1   
  6   4   7  am  
  7   4  29  1   
  8   5   8  1   
  9   5   9  2   
 10   6  30  1   
 11   6  31  1   
 12   6  32  1   
 13   7   9  1   
 14   7  10  2   
 15   8  11  ar  
 16   8  33  1   
 17   9  12  1   
 18  11  12  ar  
 19  11  13  ar  
 20  12  14  1   
 21  13  15  1   
 22  13  34  1   
 23  14  16  1   
 24  14  35  1   
 25  14  36  1   
 26  15  17  1   
 27  15  37  1   
 28  15  38  1   
 29  16  18  1   
 30  16  19  1   
 31  16  39  1   
 32  17  20  2   
 33  17  40  1   
 34  18  41  1   
 35  19  21  1   
 36  19  42  1   
 37  19  43  1   
 38  20  44  1   
 39  20  45  1   
 40  21  22  1   
 41  22  23  ar  
 42  22  24  ar  
 43  23  25  ar  
 44  23  26  1   
 45  24  27  ar  
 46  24  46  1   
 47  25  28  ar  
 48  25  47  1   
 49  26  48  1   
 50  26  49  1   
 51  26  50  1   
 52  27  28  ar  
 53  27  51  1   
 54  28  52  1   
@<TRIPOS>SUBSTRUCTURE
  1 ****  12 GROUP 4 **** **** 0

# MOE 2024.06 (io_trps.svl 2023.06)
