@<TRIPOS>MOLECULE
8-Azepan-1-yl-7-(2-hydroxy-3-m-tolyloxy-propyl)-3-methyl-3,7-dihydro-purine-2,6-
61 64 1 0 0 
SMALL
USER_CHARGES


@<TRIPOS>ATOM
  1 O        1.4250     1.8510     1.3410 O.2   1 <1>  -0.5740 
  2 C        2.4800     2.0530     0.7870 C.2   1 <1>   0.6870 
  3 N        3.5830     1.2350     0.9740 N.am  1 <1>  -0.4400 
  4 N        2.5800     3.1240    -0.0510 N.am  1 <1>  -0.4940 
  5 C        4.7500     1.5640     0.2990 C.2   1 <1>   0.4220 
  6 C        3.5240     0.0600     1.8920 C.3   1 <1>   0.0540 
  7 C        3.7170     3.4560    -0.7310 C.2   1 <1>   0.7000 
  8 N        5.9470     0.9300     0.3630 N.pl3 1 <1>  -0.7030 
  9 C        4.8660     2.6160    -0.5440 C.2   1 <1>   0.2720 
 10 O        3.6990     4.4320    -1.4550 O.2   1 <1>  -0.5740 
 11 C        6.8100     1.5740    -0.4240 C.cat 1 <1>   1.0690 
 12 N        6.1950     2.6100    -1.0170 N.pl3 1 <1>  -0.7670 
 13 N        8.0980     1.1900    -0.5520 N.pl3 1 <1>  -0.5950 
 14 C        6.8430     3.8730    -1.5040 C.3   1 <1>   0.3490 
 15 C        8.8320     0.5670     0.5870 C.3   1 <1>   0.1620 
 16 C        8.8620     1.3250    -1.8250 C.3   1 <1>   0.1620 
 17 C        7.7650     4.5120    -0.4380 C.3   1 <1>   0.1940 
 18 C        8.8160    -0.9600     0.4630 C.3   1 <1>  -0.1660 
 19 C        9.3140    -0.0300    -2.3840 C.3   1 <1>  -0.1660 
 20 O        7.2470     4.3260     0.8450 O.3   1 <1>  -0.6830 
 21 C        7.9730     6.0130    -0.6680 C.3   1 <1>   0.1140 
 22 C        9.9580    -1.5410    -0.3870 C.3   1 <1>  -0.1660 
 23 C       10.4380    -0.6870    -1.5700 C.3   1 <1>  -0.1660 
 24 O        8.7450     6.5210     0.3990 O.3   1 <1>  -0.3670 
 25 C        9.1420     7.8180     0.4210 C.ar  1 <1>   0.0760 
 26 C       10.0130     8.1880     1.4340 C.ar  1 <1>  -0.1560 
 27 C        8.7270     8.7700    -0.5060 C.ar  1 <1>  -0.1560 
 28 C       10.4750     9.4900     1.5320 C.ar  1 <1>  -0.1490 
 29 C        9.1880    10.0710    -0.4110 C.ar  1 <1>  -0.1560 
 30 C       10.0590    10.4290     0.6030 C.ar  1 <1>  -0.1560 
 31 C       11.4300     9.8890     2.6420 C.3   1 <1>  -0.1030 
 32 H        1.7540     3.7080    -0.1670 H     1 <1>   0.3650 
 33 H        2.5100    -0.1380     2.1960 H     1 <1>   0.0740 
 34 H        4.1110     0.2550     2.7720 H     1 <1>   0.0740 
 35 H        3.9020    -0.8160     1.3940 H     1 <1>   0.0740 
 36 H        6.1830     0.1040     0.9010 H     1 <1>   0.4460 
 37 H        6.0840     4.5880    -1.7670 H     1 <1>   0.0740 
 38 H        7.4020     3.6880    -2.4020 H     1 <1>   0.0740 
 39 H        8.3620     0.8520     1.5130 H     1 <1>   0.0740 
 40 H        9.8450     0.9330     0.6240 H     1 <1>   0.0740 
 41 H        9.7170     1.9600    -1.6670 H     1 <1>   0.0740 
 42 H        8.2410     1.7800    -2.5750 H     1 <1>   0.0740 
 43 H        8.7260     4.0300    -0.4670 H     1 <1>   0.0740 
 44 H        7.8730    -1.2860     0.0620 H     1 <1>   0.0740 
 45 H        8.9030    -1.3840     1.4490 H     1 <1>   0.0740 
 46 H        9.7000     0.1510    -3.3730 H     1 <1>   0.0740 
 47 H        8.4780    -0.6980    -2.4950 H     1 <1>   0.0740 
 48 H        7.6800     4.9810     1.4420 H     1 <1>   0.3950 
 49 H        7.0300     6.5330    -0.6840 H     1 <1>   0.0740 
 50 H        8.5060     6.1890    -1.5860 H     1 <1>   0.0740 
 51 H        9.6440    -2.5030    -0.7590 H     1 <1>   0.0740 
 52 H       10.8080    -1.7220     0.2490 H     1 <1>   0.0740 
 53 H       11.1220     0.0680    -1.2210 H     1 <1>   0.0740 
 54 H       11.0030    -1.3300    -2.2240 H     1 <1>   0.0740 
 55 H       10.3280     7.4470     2.1460 H     1 <1>   0.1440 
 56 H        8.0500     8.5270    -1.3020 H     1 <1>   0.1440 
 57 H        8.8690    10.8080    -1.1270 H     1 <1>   0.1440 
 58 H       10.4130    11.4430     0.6670 H     1 <1>   0.1440 
 59 H       11.3880     9.1840     3.4520 H     1 <1>   0.0740 
 60 H       11.1700    10.8600     3.0230 H     1 <1>   0.0740 
 61 H       12.4350     9.9220     2.2620 H     1 <1>   0.0740 
@<TRIPOS>BOND
  1   1   2  2   
  2   2   3  am  
  3   2   4  am  
  4   3   5  1   
  5   3   6  1   
  6   4   7  am  
  7   4  32  1   
  8   5   8  1   
  9   5   9  2   
 10   6  33  1   
 11   6  34  1   
 12   6  35  1   
 13   7   9  1   
 14   7  10  2   
 15   8  11  ar  
 16   8  36  1   
 17   9  12  1   
 18  11  12  ar  
 19  11  13  ar  
 20  12  14  1   
 21  13  15  1   
 22  13  16  1   
 23  14  17  1   
 24  14  37  1   
 25  14  38  1   
 26  15  18  1   
 27  15  39  1   
 28  15  40  1   
 29  16  19  1   
 30  16  41  1   
 31  16  42  1   
 32  17  20  1   
 33  17  21  1   
 34  17  43  1   
 35  18  22  1   
 36  18  44  1   
 37  18  45  1   
 38  19  23  1   
 39  19  46  1   
 40  19  47  1   
 41  20  48  1   
 42  21  24  1   
 43  21  49  1   
 44  21  50  1   
 45  22  23  1   
 46  22  51  1   
 47  22  52  1   
 48  23  53  1   
 49  23  54  1   
 50  24  25  1   
 51  25  26  ar  
 52  25  27  ar  
 53  26  28  ar  
 54  26  55  1   
 55  27  29  ar  
 56  27  56  1   
 57  28  30  ar  
 58  28  31  1   
 59  29  30  ar  
 60  29  57  1   
 61  30  58  1   
 62  31  59  1   
 63  31  60  1   
 64  31  61  1   
@<TRIPOS>SUBSTRUCTURE
  1 ****  20 GROUP 4 **** **** 0

# MOE 2024.06 (io_trps.svl 2023.06)
