@<TRIPOS>MOLECULE
NONAME
49 55 1 0 0 
SMALL
USER_CHARGES


@<TRIPOS>ATOM
  1 O       -0.5690    -1.5800     2.2800 O.2   1 <1>  -0.5700 
  2 C       -0.8690    -1.4120     1.1260 C.2   1 <1>   0.5690 
  3 N       -0.2290    -1.8580    -0.0200 N.am  1 <1>  -0.4200 
  4 C       -2.0370    -0.5840     0.6830 C.3   1 <1>  -0.0190 
  5 C       -1.0720    -1.6490    -1.1030 C.2   1 <1>   0.5690 
  6 C        1.1400    -2.4770    -0.0190 C.3   1 <1>   0.3000 
  7 C       -3.3730    -0.0010     1.1800 C.3   1 <1>   0.1530 
  8 C       -2.4440    -1.3910    -0.5520 C.3   1 <1>  -0.0190 
  9 O       -0.8360    -1.6710    -2.2840 O.2   1 <1>  -0.5700 
 10 C        1.6570    -2.7910    -1.4460 C.3   1 <1>  -0.1600 
 11 C        1.1070    -3.8070     0.7710 C.3   1 <1>  -0.1600 
 12 C        2.1530    -1.5140     0.6450 C.3   1 <1>  -0.1600 
 13 C       -4.4930    -1.0340     1.2190 C.2   1 <1>  -0.2880 
 14 C       -3.7550     0.5910    -0.1850 C.3   1 <1>  -0.1900 
 15 C       -3.7780    -0.7230    -0.9670 C.3   1 <1>   0.1530 
 16 C        3.0590    -3.4280    -1.4080 C.3   1 <1>  -0.0800 
 17 C        2.5090    -4.4440     0.8300 C.3   1 <1>  -0.0800 
 18 C        3.5560    -2.1480     0.7030 C.3   1 <1>  -0.0800 
 19 C       -4.7680    -1.4120    -0.0340 C.2   1 <1>  -0.2880 
 20 C       -3.3100     1.9060    -0.7370 C.3   1 <1>  -0.2000 
 21 C       -4.7610     1.6770    -0.3730 C.3   1 <1>  -0.2000 
 22 C        2.9950    -4.7360    -0.6010 C.3   1 <1>  -0.1600 
 23 C        4.0360    -2.4540    -0.7270 C.3   1 <1>  -0.1600 
 24 C        3.4840    -3.4610     1.5060 C.3   1 <1>  -0.1600 
 25 H       -1.5030     0.3010     0.3690 H     1 <1>   0.0800 
 26 H       -3.3360     0.7180     1.9800 H     1 <1>   0.0800 
 27 H       -2.7160    -2.3910    -0.2510 H     1 <1>   0.0800 
 28 H        0.9860    -3.4710    -1.9390 H     1 <1>   0.0800 
 29 H        1.7080    -1.8850    -2.0240 H     1 <1>   0.0800 
 30 H        0.4220    -4.4900     0.3020 H     1 <1>   0.0800 
 31 H        0.7730    -3.6390     1.7780 H     1 <1>   0.0800 
 32 H        1.8520    -1.2820     1.6500 H     1 <1>   0.0800 
 33 H        2.1980    -0.5950     0.0880 H     1 <1>   0.0800 
 34 H       -4.9280    -1.3280     2.1590 H     1 <1>   0.1500 
 35 H       -4.0400    -0.6850    -2.0100 H     1 <1>   0.0800 
 36 H        3.3910    -3.6340    -2.4120 H     1 <1>   0.0800 
 37 H        2.4680    -5.3610     1.3940 H     1 <1>   0.0800 
 38 H        4.2430    -1.4690     1.1790 H     1 <1>   0.0800 
 39 H       -5.4980    -2.1010    -0.4220 H     1 <1>   0.1500 
 40 H       -3.0490     1.9760    -1.7790 H     1 <1>   0.1000 
 41 H       -2.7360     2.5760    -0.1210 H     1 <1>   0.1000 
 42 H       -5.1630     2.1660     0.4970 H     1 <1>   0.1000 
 43 H       -5.4870     1.5790    -1.1620 H     1 <1>   0.1000 
 44 H        3.9700    -5.1920    -0.5690 H     1 <1>   0.0800 
 45 H        2.3270    -5.4300    -1.0810 H     1 <1>   0.0800 
 46 H        4.0990    -1.5420    -1.2940 H     1 <1>   0.0800 
 47 H        5.0200    -2.8880    -0.6960 H     1 <1>   0.0800 
 48 H        4.4630    -3.9040     1.5670 H     1 <1>   0.0800 
 49 H        3.1560    -3.2570     2.5110 H     1 <1>   0.0800 
@<TRIPOS>BOND
  1   1   2  2   
  2   2   3  am  
  3   2   4  1   
  4   3   5  am  
  5   3   6  1   
  6   4   7  1   
  7   4   8  1   
  8   4  25  1   
  9   5   8  1   
 10   5   9  2   
 11   6  10  1   
 12   6  11  1   
 13   6  12  1   
 14   7  13  1   
 15   7  14  1   
 16   7  26  1   
 17   8  15  1   
 18   8  27  1   
 19  10  16  1   
 20  10  28  1   
 21  10  29  1   
 22  11  17  1   
 23  11  30  1   
 24  11  31  1   
 25  12  18  1   
 26  12  32  1   
 27  12  33  1   
 28  13  19  2   
 29  13  34  1   
 30  14  15  1   
 31  14  20  1   
 32  14  21  1   
 33  15  19  1   
 34  15  35  1   
 35  16  22  1   
 36  16  23  1   
 37  16  36  1   
 38  17  22  1   
 39  17  24  1   
 40  17  37  1   
 41  18  23  1   
 42  18  24  1   
 43  18  38  1   
 44  19  39  1   
 45  20  21  1   
 46  20  40  1   
 47  20  41  1   
 48  21  42  1   
 49  21  43  1   
 50  22  44  1   
 51  22  45  1   
 52  23  46  1   
 53  23  47  1   
 54  24  48  1   
 55  24  49  1   
@<TRIPOS>SUBSTRUCTURE
  1 ****   3 GROUP 4 **** **** 0

# MOE 2024.06 (io_trps.svl 2023.06)
