@<TRIPOS>MOLECULE
7-(4-Hydroxy-3-methoxy-phenyl)-5-methyl-4,7-dihydro-tetrazolo[1,5-a]pyrimidine-6
41 43 1 0 0 
SMALL
USER_CHARGES


@<TRIPOS>ATOM
  1 O       -1.3280    -1.6440     0.5380 O.2   1 <1>  -0.5700 
  2 C       -0.3900    -1.6550    -0.2340 C.2   1 <1>   0.7060 
  3 O       -0.6060    -1.2770    -1.5020 O.3   1 <1>  -0.4300 
  4 C        0.9390    -2.0400     0.1300 C.2   1 <1>  -0.1240 
  5 C       -1.8650    -0.8360    -1.9700 C.3   1 <1>   0.1200 
  6 C        1.3250    -2.8280     1.1820 C.2   1 <1>  -0.0380 
  7 C        2.0080    -1.4330    -0.8030 C.3   1 <1>   0.4570 
  8 C       -2.6870    -2.0500    -2.3990 C.3   1 <1>  -0.2400 
  9 N        2.6530    -3.1000     1.4210 N.pl3 1 <1>  -0.5840 
 10 C        0.3920    -3.4970     2.1820 C.3   1 <1>  -0.1020 
 11 N        3.3680    -1.9330    -0.4950 N.pl3 1 <1>   0.3140 
 12 C        1.9980     0.0940    -0.6930 C.ar  1 <1>  -0.1440 
 13 C        3.6450    -2.6870     0.5470 C.2   1 <1>   0.2700 
 14 N        4.4910    -1.7380    -1.1640 N.2   1 <1>  -0.4180 
 15 C        2.1690     0.7130     0.5420 C.ar  1 <1>  -0.1500 
 16 C        1.8100     0.8720    -1.8290 C.ar  1 <1>  -0.1500 
 17 N        4.8950    -2.9600     0.5740 N.2   1 <1>  -0.3380 
 18 N        5.4040    -2.3580    -0.5030 N.2   1 <1>   0.0000 
 19 C        2.1460     2.1000     0.6460 C.ar  1 <1>   0.0820 
 20 C        1.7840     2.2520    -1.7360 C.ar  1 <1>  -0.1500 
 21 O        2.3060     2.7750     1.8210 O.3   1 <1>  -0.3630 
 22 C        1.9490     2.8570    -0.5050 C.ar  1 <1>   0.0820 
 23 C        2.5610     2.0860     3.0260 C.3   1 <1>   0.0400 
 24 O        1.9190     4.1970    -0.4140 O.3   1 <1>  -0.5320 
 25 H       -1.6910    -0.1870    -2.8100 H     1 <1>   0.0800 
 26 H       -2.3610    -0.2740    -1.1950 H     1 <1>   0.0800 
 27 H        1.8010    -1.7250    -1.8160 H     1 <1>   0.0800 
 28 H       -2.1700    -2.6010    -3.1640 H     1 <1>   0.0800 
 29 H       -3.6330    -1.7240    -2.7920 H     1 <1>   0.0800 
 30 H       -2.8760    -2.6900    -1.5550 H     1 <1>   0.0800 
 31 H        2.9550    -3.7000     2.1980 H     1 <1>   0.4000 
 32 H        0.3730    -2.9330     3.0980 H     1 <1>   0.0800 
 33 H        0.7310    -4.4940     2.3980 H     1 <1>   0.0800 
 34 H       -0.6120    -3.5790     1.8110 H     1 <1>   0.0800 
 35 H        2.3180     0.1040     1.4140 H     1 <1>   0.1500 
 36 H        1.6790     0.4140    -2.7950 H     1 <1>   0.1500 
 37 H        1.6380     2.8630    -2.6080 H     1 <1>   0.1500 
 38 H        2.6740     2.8120     3.8100 H     1 <1>   0.0800 
 39 H        3.4710     1.5200     2.9190 H     1 <1>   0.0800 
 40 H        1.7280     1.4400     3.2430 H     1 <1>   0.0800 
 41 H        2.0550     4.4580     0.5180 H     1 <1>   0.4500 
@<TRIPOS>BOND
  1   1   2  2   
  2   2   3  1   
  3   2   4  1   
  4   3   5  1   
  5   4   6  2   
  6   4   7  1   
  7   5   8  1   
  8   5  25  1   
  9   5  26  1   
 10   6   9  1   
 11   6  10  1   
 12   7  11  1   
 13   7  12  1   
 14   7  27  1   
 15   8  28  1   
 16   8  29  1   
 17   8  30  1   
 18   9  13  1   
 19   9  31  1   
 20  10  32  1   
 21  10  33  1   
 22  10  34  1   
 23  11  13  1   
 24  11  14  1   
 25  12  15  ar  
 26  12  16  ar  
 27  13  17  2   
 28  14  18  2   
 29  15  19  ar  
 30  15  35  1   
 31  16  20  ar  
 32  16  36  1   
 33  17  18  1   
 34  19  21  1   
 35  19  22  ar  
 36  20  22  ar  
 37  20  37  1   
 38  21  23  1   
 39  22  24  1   
 40  23  38  1   
 41  23  39  1   
 42  23  40  1   
 43  24  41  1   
@<TRIPOS>SUBSTRUCTURE
  1 ****  12 GROUP 4 **** **** 0

# MOE 2024.06 (io_trps.svl 2023.06)
