@<TRIPOS>MOLECULE
[4-Chloro-3-(morpholine-4-sulfonyl)-phenyl]-pyrrolidin-1-yl-methanone
42 44 1 0 0 
SMALL
USER_CHARGES


@<TRIPOS>ATOM
  1 CL       0.5520    -0.1200     2.8620 Cl    1 <1>  -0.1770 
  2 C        1.7120    -0.7770     1.7360 C.ar  1 <1>   0.1770 
  3 C        1.5380    -2.0130     1.1250 C.ar  1 <1>  -0.0090 
  4 C        2.8150     0.0150     1.4700 C.ar  1 <1>  -0.1500 
  5 S        0.1070    -3.0850     1.4190 S.o2  1 <1>   1.4470 
  6 C        2.5120    -2.4100     0.2160 C.ar  1 <1>  -0.1500 
  7 C        3.7690    -0.4160     0.5690 C.ar  1 <1>  -0.1500 
  8 O        0.5070    -4.4420     1.1140 O.2   1 <1>  -0.6500 
  9 O       -0.5400    -2.8420     2.6880 O.2   1 <1>  -0.6500 
 10 N       -0.9800    -2.6240     0.2030 N.am  1 <1>  -0.8490 
 11 C        3.6380    -1.6420    -0.0780 C.ar  1 <1>   0.0860 
 12 C       -1.6850    -1.3660     0.5030 C.3   1 <1>   0.1960 
 13 C       -1.9690    -3.6800    -0.0660 C.3   1 <1>   0.1960 
 14 C        4.6200    -2.1090    -1.0360 C.2   1 <1>   0.5440 
 15 C       -2.6700    -0.9990    -0.6220 C.3   1 <1>   0.1200 
 16 C       -2.9520    -3.2560    -1.1720 C.3   1 <1>   0.1200 
 17 O        4.2540    -2.4520    -2.1440 O.2   1 <1>  -0.5700 
 18 N        5.9570    -2.1810    -0.7240 N.am  1 <1>  -0.6600 
 19 O       -3.5720    -2.0440    -0.8450 O.3   1 <1>  -0.5600 
 20 C        6.9600    -2.6770    -1.6910 C.3   1 <1>   0.1400 
 21 C        6.5180    -2.1390     0.6450 C.3   1 <1>   0.1400 
 22 C        8.2630    -2.7560    -0.9030 C.3   1 <1>  -0.1600 
 23 C        7.8250    -2.9170     0.5500 C.3   1 <1>  -0.1600 
 24 H        2.9180     0.9660     1.9630 H     1 <1>   0.1500 
 25 H        2.4020    -3.3530    -0.2950 H     1 <1>   0.1500 
 26 H        4.6240     0.2030     0.3510 H     1 <1>   0.1500 
 27 H       -0.9740    -0.5660     0.6070 H     1 <1>   0.0800 
 28 H       -2.2310    -1.4520     1.4280 H     1 <1>   0.0800 
 29 H       -2.5210    -3.9070     0.8320 H     1 <1>   0.0800 
 30 H       -1.4660    -4.5780    -0.3830 H     1 <1>   0.0800 
 31 H       -2.1400    -0.7990    -1.5370 H     1 <1>   0.0800 
 32 H       -3.2390    -0.1270    -0.3500 H     1 <1>   0.0800 
 33 H       -3.7220    -3.9970    -1.2910 H     1 <1>   0.0800 
 34 H       -2.4360    -3.1370    -2.1090 H     1 <1>   0.0800 
 35 H        7.0400    -2.0090    -2.5320 H     1 <1>   0.0800 
 36 H        6.6640    -3.6530    -2.0360 H     1 <1>   0.0800 
 37 H        5.8470    -2.5840     1.3600 H     1 <1>   0.0800 
 38 H        6.7150    -1.1150     0.9130 H     1 <1>   0.0800 
 39 H        8.8000    -1.8320    -1.0240 H     1 <1>   0.0800 
 40 H        8.8820    -3.5680    -1.2380 H     1 <1>   0.0800 
 41 H        7.6290    -3.9540     0.7590 H     1 <1>   0.0800 
 42 H        8.5620    -2.5520     1.2440 H     1 <1>   0.0800 
@<TRIPOS>BOND
  1   1   2  1   
  2   2   3  ar  
  3   2   4  ar  
  4   3   5  1   
  5   3   6  ar  
  6   4   7  ar  
  7   4  24  1   
  8   5   8  2   
  9   5   9  2   
 10   5  10  am  
 11   6  11  ar  
 12   6  25  1   
 13   7  11  ar  
 14   7  26  1   
 15  10  12  1   
 16  10  13  1   
 17  11  14  1   
 18  12  15  1   
 19  12  27  1   
 20  12  28  1   
 21  13  16  1   
 22  13  29  1   
 23  13  30  1   
 24  14  17  2   
 25  14  18  am  
 26  15  19  1   
 27  15  31  1   
 28  15  32  1   
 29  16  19  1   
 30  16  33  1   
 31  16  34  1   
 32  18  20  1   
 33  18  21  1   
 34  20  22  1   
 35  20  35  1   
 36  20  36  1   
 37  21  23  1   
 38  21  37  1   
 39  21  38  1   
 40  22  23  1   
 41  22  39  1   
 42  22  40  1   
 43  23  41  1   
 44  23  42  1   
@<TRIPOS>SUBSTRUCTURE
  1 ****   6 GROUP 4 **** **** 0

# MOE 2024.06 (io_trps.svl 2023.06)
