@<TRIPOS>MOLECULE
2-(3-Acetyl-7-ethyl-indol-1-yl)-1-morpholin-4-yl-ethanone
45 47 1 0 0 
SMALL
USER_CHARGES


@<TRIPOS>ATOM
  1 O        1.1390     2.4390     1.9230 O.2   1 <1>  -0.5700 
  2 C        1.3920     2.2300     0.7590 C.2   1 <1>   0.5690 
  3 N        2.4410     1.4130     0.4050 N.am  1 <1>  -0.6600 
  4 C        0.5390     2.9180    -0.2990 C.3   1 <1>   0.1570 
  5 C        3.0050     1.2720    -0.9780 C.3   1 <1>   0.1400 
  6 C        3.0900     0.5300     1.4230 C.3   1 <1>   0.1400 
  7 N       -0.9070     2.9110     0.0270 N.pl3 1 <1>   0.0480 
  8 C        3.9710     0.0790    -1.0960 C.3   1 <1>   0.1200 
  9 C        3.2130    -0.9250     0.9170 C.3   1 <1>   0.1200 
 10 C       -1.8800     1.9530    -0.2320 C.ar  1 <1>  -0.1520 
 11 C       -1.5350     4.0360     0.4400 C.2   1 <1>  -0.3020 
 12 O        3.4150    -1.0380    -0.4710 O.3   1 <1>  -0.5600 
 13 C       -1.8060     0.6070    -0.6540 C.ar  1 <1>  -0.1440 
 14 C       -3.1230     2.5530     0.0030 C.ar  1 <1>   0.0000 
 15 C       -2.8900     3.8790     0.4710 C.2   1 <1>  -0.0860 
 16 C       -2.9890    -0.0670    -0.8880 C.ar  1 <1>  -0.1500 
 17 C       -0.4550    -0.0920    -0.8270 C.3   1 <1>  -0.0170 
 18 C       -4.2980     1.8410    -0.2610 C.ar  1 <1>  -0.1500 
 19 C       -3.8340     4.8760     0.8980 C.2   1 <1>   0.5950 
 20 C       -4.2260     0.5460    -0.7020 C.ar  1 <1>  -0.1500 
 21 C       -0.4900    -1.5940    -1.1320 C.3   1 <1>  -0.2400 
 22 O       -3.5720     6.0540     0.9270 O.2   1 <1>  -0.5700 
 23 C       -5.2170     4.4910     1.3750 C.3   1 <1>  -0.1790 
 24 H        0.6630     2.4710    -1.2620 H     1 <1>   0.0800 
 25 H        0.8650     3.9380    -0.3680 H     1 <1>   0.0800 
 26 H        3.5220     2.1760    -1.2480 H     1 <1>   0.0800 
 27 H        2.2120     1.1150    -1.6850 H     1 <1>   0.0800 
 28 H        2.5350     0.5320     2.3460 H     1 <1>   0.0800 
 29 H        4.0700     0.9150     1.6400 H     1 <1>   0.0800 
 30 H        4.9190     0.2980    -0.6360 H     1 <1>   0.0800 
 31 H        4.1380    -0.1670    -2.1300 H     1 <1>   0.0800 
 32 H        2.3100    -1.4620     1.1480 H     1 <1>   0.0800 
 33 H        4.0300    -1.4170     1.4140 H     1 <1>   0.0800 
 34 H       -0.9990     4.9300     0.7100 H     1 <1>   0.1500 
 35 H       -3.0000    -1.0880    -1.2200 H     1 <1>   0.1500 
 36 H        0.0970     0.0270     0.0850 H     1 <1>   0.0800 
 37 H        0.0780     0.3880    -1.6240 H     1 <1>   0.0800 
 38 H       -5.2570     2.3000    -0.1300 H     1 <1>   0.1500 
 39 H       -5.1230    -0.0120    -0.9070 H     1 <1>   0.1500 
 40 H       -1.0140    -2.1210    -0.3540 H     1 <1>   0.0800 
 41 H        0.5150    -1.9750    -1.1820 H     1 <1>   0.0800 
 42 H       -0.9700    -1.7780    -2.0760 H     1 <1>   0.0800 
 43 H       -5.8880     4.4520     0.5390 H     1 <1>   0.0800 
 44 H       -5.5730     5.2290     2.0700 H     1 <1>   0.0800 
 45 H       -5.1860     3.5410     1.8740 H     1 <1>   0.0800 
@<TRIPOS>BOND
  1   1   2  2   
  2   2   3  am  
  3   2   4  1   
  4   3   5  1   
  5   3   6  1   
  6   4   7  1   
  7   4  24  1   
  8   4  25  1   
  9   5   8  1   
 10   5  26  1   
 11   5  27  1   
 12   6   9  1   
 13   6  28  1   
 14   6  29  1   
 15   7  10  1   
 16   7  11  1   
 17   8  12  1   
 18   8  30  1   
 19   8  31  1   
 20   9  12  1   
 21   9  32  1   
 22   9  33  1   
 23  10  13  ar  
 24  10  14  ar  
 25  11  15  2   
 26  11  34  1   
 27  13  16  ar  
 28  13  17  1   
 29  14  15  1   
 30  14  18  ar  
 31  15  19  1   
 32  16  20  ar  
 33  16  35  1   
 34  17  21  1   
 35  17  36  1   
 36  17  37  1   
 37  18  20  ar  
 38  18  38  1   
 39  19  22  2   
 40  19  23  1   
 41  20  39  1   
 42  21  40  1   
 43  21  41  1   
 44  21  42  1   
 45  23  43  1   
 46  23  44  1   
 47  23  45  1   
@<TRIPOS>SUBSTRUCTURE
  1 ****   7 GROUP 4 **** **** 0

# MOE 2024.06 (io_trps.svl 2023.06)
