@<TRIPOS>MOLECULE
2-[3-(4-Fluoro-phenyl)-3-hydroxy-8-aza-bicyclo[3.2.1]oct-8-yl]-4,6-dimethyl-nico
48 51 1 0 0 
SMALL
USER_CHARGES


@<TRIPOS>ATOM
  1 F        0.2320    -1.2860    -2.0580 F     1 <1>  -0.1900 
  2 C       -0.9230    -1.5460    -1.5070 C.ar  1 <1>   0.1900 
  3 C       -1.9050    -2.1490    -2.2650 C.ar  1 <1>  -0.1500 
  4 C       -1.1230    -1.2140    -0.1840 C.ar  1 <1>  -0.1500 
  5 C       -3.1290    -2.4240    -1.6770 C.ar  1 <1>  -0.1500 
  6 C       -2.3510    -1.4940     0.3900 C.ar  1 <1>  -0.1500 
  7 C       -3.3770    -2.0940    -0.3420 C.ar  1 <1>  -0.1430 
  8 C       -4.7210    -2.3840     0.3640 C.3   1 <1>   0.4240 
  9 O       -4.3840    -3.3100     1.3280 O.3   1 <1>  -0.6800 
 10 C       -5.2630    -1.1270     1.0870 C.3   1 <1>  -0.1600 
 11 C       -5.7970    -3.0370    -0.5430 C.3   1 <1>  -0.1600 
 12 C       -6.7530    -1.2000     1.4570 C.3   1 <1>   0.2890 
 13 C       -7.2280    -2.9460     0.0080 C.3   1 <1>   0.2890 
 14 N       -7.4630    -1.5090     0.2100 N.pl3 1 <1>  -0.8380 
 15 C       -7.1010    -2.3810     2.3660 C.3   1 <1>  -0.1600 
 16 C       -7.4030    -3.5410     1.4080 C.3   1 <1>  -0.1600 
 17 C       -8.6920    -0.9220    -0.0570 C.ar  1 <1>   0.4100 
 18 N       -9.7540    -1.7110     0.0850 N.ar  1 <1>  -0.6200 
 19 C       -8.7810     0.4240    -0.4500 C.ar  1 <1>   0.0730 
 20 C      -10.9330    -1.1770    -0.1510 C.ar  1 <1>   0.1670 
 21 C       -7.5910     1.2060    -0.5980 C.1   1 <1>   0.4840 
 22 C      -10.0340     0.9700    -0.6940 C.ar  1 <1>  -0.1430 
 23 C      -11.1230     0.1380    -0.5350 C.ar  1 <1>  -0.1500 
 24 C      -12.1200    -2.1010     0.0230 C.3   1 <1>  -0.0970 
 25 N       -6.6720     1.8760    -0.7050 N.1   1 <1>  -0.5570 
 26 C      -10.2330     2.4200    -1.1210 C.3   1 <1>  -0.0970 
 27 H       -1.7130    -2.3960    -3.2930 H     1 <1>   0.1500 
 28 H       -0.3350    -0.7480     0.3810 H     1 <1>   0.1500 
 29 H       -3.8710    -2.9000    -2.2900 H     1 <1>   0.1500 
 30 H       -2.5010    -1.2430     1.4260 H     1 <1>   0.1500 
 31 H       -3.6690    -3.8630     0.9630 H     1 <1>   0.4000 
 32 H       -5.1390    -0.2850     0.4330 H     1 <1>   0.0800 
 33 H       -4.6890    -0.9290     1.9720 H     1 <1>   0.0800 
 34 H       -5.5430    -4.0600    -0.7490 H     1 <1>   0.0800 
 35 H       -5.8270    -2.5110    -1.4780 H     1 <1>   0.0800 
 36 H       -7.0880    -0.2690     1.8850 H     1 <1>   0.0800 
 37 H       -7.9320    -3.3680    -0.6910 H     1 <1>   0.0800 
 38 H       -7.9830    -2.1410     2.9320 H     1 <1>   0.0800 
 39 H       -6.3020    -2.6090     3.0490 H     1 <1>   0.0800 
 40 H       -6.7620    -4.3890     1.5660 H     1 <1>   0.0800 
 41 H       -8.4240    -3.8560     1.5280 H     1 <1>   0.0800 
 42 H      -12.1180     0.5050    -0.7100 H     1 <1>   0.1500 
 43 H      -12.0240    -2.9370    -0.6450 H     1 <1>   0.0800 
 44 H      -13.0430    -1.5940    -0.1830 H     1 <1>   0.0800 
 45 H      -12.1420    -2.4680     1.0330 H     1 <1>   0.0800 
 46 H       -9.7250     2.6050    -2.0520 H     1 <1>   0.0800 
 47 H       -9.8380     3.0850    -0.3730 H     1 <1>   0.0800 
 48 H      -11.2760     2.6450    -1.2560 H     1 <1>   0.0800 
@<TRIPOS>BOND
  1   1   2  1   
  2   2   3  ar  
  3   2   4  ar  
  4   3   5  ar  
  5   3  27  1   
  6   4   6  ar  
  7   4  28  1   
  8   5   7  ar  
  9   5  29  1   
 10   6   7  ar  
 11   6  30  1   
 12   7   8  1   
 13   8   9  1   
 14   8  10  1   
 15   8  11  1   
 16   9  31  1   
 17  10  12  1   
 18  10  32  1   
 19  10  33  1   
 20  11  13  1   
 21  11  34  1   
 22  11  35  1   
 23  12  14  1   
 24  12  15  1   
 25  12  36  1   
 26  13  14  1   
 27  13  16  1   
 28  13  37  1   
 29  14  17  1   
 30  15  16  1   
 31  15  38  1   
 32  15  39  1   
 33  16  40  1   
 34  16  41  1   
 35  17  18  ar  
 36  17  19  ar  
 37  18  20  ar  
 38  19  21  1   
 39  19  22  ar  
 40  20  23  ar  
 41  20  24  1   
 42  21  25  3   
 43  22  23  ar  
 44  22  26  1   
 45  23  42  1   
 46  24  43  1   
 47  24  44  1   
 48  24  45  1   
 49  26  46  1   
 50  26  47  1   
 51  26  48  1   
@<TRIPOS>SUBSTRUCTURE
  1 ****  14 GROUP 4 **** **** 0

# MOE 2024.06 (io_trps.svl 2023.06)
