@<TRIPOS>MOLECULE
6-(4-tert-Butyl-phenoxymethyl)-3-ethyl-[1,2,4]triazolo[3,4-b][1,3,4]thiadiazole
42 44 1 0 0 
SMALL
USER_CHARGES


@<TRIPOS>ATOM
  1 S       -0.4060    -0.1970    -0.7100 S.3   1 <1>  -0.1970 
  2 C        0.4840     1.3030    -0.5660 C.2   1 <1>   0.2420 
  3 C       -1.9020     0.7170    -0.4180 C.2   1 <1>   0.5300 
  4 N        1.7160     1.6610    -0.6340 N.2   1 <1>  -0.3380 
  5 N       -0.3700     2.2820    -0.3290 N.pl3 1 <1>   0.5050 
  6 N       -1.7280     1.9680    -0.2410 N.2   1 <1>  -0.6520 
  7 C       -3.1740    -0.1220    -0.4210 C.3   1 <1>   0.1810 
  8 N        1.6890     2.9920    -0.4250 N.2   1 <1>  -0.3380 
  9 C        0.4490     3.3430    -0.2460 C.2   1 <1>   0.0060 
 10 O       -4.3150     0.6790    -0.1820 O.3   1 <1>  -0.3630 
 11 C       -0.0790     4.7460     0.0250 C.3   1 <1>   0.0200 
 12 C       -5.5570     0.1360    -0.1420 C.ar  1 <1>   0.0830 
 13 C        1.0280     5.8060     0.0780 C.3   1 <1>  -0.2400 
 14 C       -6.6080     1.0010     0.0980 C.ar  1 <1>  -0.1500 
 15 C       -5.8230    -1.2160    -0.3250 C.ar  1 <1>  -0.1500 
 16 C       -7.9080     0.5320     0.1560 C.ar  1 <1>  -0.1500 
 17 C       -7.1260    -1.6770    -0.2660 C.ar  1 <1>  -0.1500 
 18 C       -8.1950    -0.8190    -0.0250 C.ar  1 <1>  -0.1430 
 19 C       -9.6290    -1.3890     0.0300 C.3   1 <1>   0.1430 
 20 C      -10.6980    -0.3170     0.3040 C.3   1 <1>  -0.2400 
 21 C       -9.9720    -2.0500    -1.3130 C.3   1 <1>  -0.2400 
 22 C       -9.7240    -2.4340     1.1520 C.3   1 <1>  -0.2400 
 23 H       -3.1170    -0.8630     0.3550 H     1 <1>   0.0800 
 24 H       -3.2910    -0.5940    -1.3790 H     1 <1>   0.0800 
 25 H       -0.6090     4.7420     0.9610 H     1 <1>   0.0800 
 26 H       -0.7800     5.0080    -0.7490 H     1 <1>   0.0800 
 27 H        1.7290     5.5700     0.8600 H     1 <1>   0.0800 
 28 H        0.6070     6.7760     0.2710 H     1 <1>   0.0800 
 29 H        1.5580     5.8370    -0.8580 H     1 <1>   0.0800 
 30 H       -6.4030     2.0460     0.2400 H     1 <1>   0.1500 
 31 H       -5.0410    -1.9250    -0.5140 H     1 <1>   0.1500 
 32 H       -8.6830     1.2510     0.3450 H     1 <1>   0.1500 
 33 H       -7.3020    -2.7280    -0.4120 H     1 <1>   0.1500 
 34 H      -11.6780    -0.7580     0.3340 H     1 <1>   0.0800 
 35 H      -10.5190     0.1600     1.2510 H     1 <1>   0.0800 
 36 H      -10.6930     0.4280    -0.4710 H     1 <1>   0.0800 
 37 H       -9.8740    -1.3340    -2.1100 H     1 <1>   0.0800 
 38 H      -10.9810    -2.4210    -1.3080 H     1 <1>   0.0800 
 39 H       -9.3150    -2.8750    -1.5190 H     1 <1>   0.0800 
 40 H       -9.4510    -1.9880     2.0920 H     1 <1>   0.0800 
 41 H       -9.0650    -3.2620     0.9690 H     1 <1>   0.0800 
 42 H      -10.7260    -2.8160     1.2330 H     1 <1>   0.0800 
@<TRIPOS>BOND
  1   1   2  1   
  2   1   3  1   
  3   2   4  2   
  4   2   5  1   
  5   3   6  2   
  6   3   7  1   
  7   4   8  1   
  8   5   6  1   
  9   5   9  1   
 10   7  10  1   
 11   7  23  1   
 12   7  24  1   
 13   8   9  2   
 14   9  11  1   
 15  10  12  1   
 16  11  13  1   
 17  11  25  1   
 18  11  26  1   
 19  12  14  ar  
 20  12  15  ar  
 21  13  27  1   
 22  13  28  1   
 23  13  29  1   
 24  14  16  ar  
 25  14  30  1   
 26  15  17  ar  
 27  15  31  1   
 28  16  18  ar  
 29  16  32  1   
 30  17  18  ar  
 31  17  33  1   
 32  18  19  1   
 33  19  20  1   
 34  19  21  1   
 35  19  22  1   
 36  20  34  1   
 37  20  35  1   
 38  20  36  1   
 39  21  37  1   
 40  21  38  1   
 41  21  39  1   
 42  22  40  1   
 43  22  41  1   
 44  22  42  1   
@<TRIPOS>SUBSTRUCTURE
  1 ****  10 GROUP 4 **** **** 0

# MOE 2024.06 (io_trps.svl 2023.06)
