@<TRIPOS>MOLECULE
4-Methyl-N-[2-(2-piperidin-1-yl-acetylamino)-ethyl]-benzamide
48 49 1 0 0 
SMALL
USER_CHARGES


@<TRIPOS>ATOM
  1 O        0.7220    -0.3620     0.9410 O.2   1 <1>  -0.5700 
  2 C        1.1670    -1.4840     1.0360 C.2   1 <1>   0.5440 
  3 N        2.4180    -1.5880     1.5620 N.am  1 <1>  -0.7300 
  4 C        0.4170    -2.6320     0.5630 C.ar  1 <1>   0.0860 
  5 C        3.3720    -2.7110     1.3950 C.3   1 <1>   0.1400 
  6 C       -0.1160    -2.6530    -0.7250 C.ar  1 <1>  -0.1500 
  7 C        0.2020    -3.7510     1.3660 C.ar  1 <1>  -0.1500 
  8 C        4.0050    -2.6630     0.0000 C.3   1 <1>   0.1400 
  9 C       -0.8100    -3.7510    -1.1990 C.ar  1 <1>  -0.1500 
 10 C       -0.4910    -4.8520     0.8970 C.ar  1 <1>  -0.1500 
 11 N        4.8550    -3.8630    -0.2370 N.am  1 <1>  -0.7300 
 12 C       -0.9980    -4.8600    -0.3920 C.ar  1 <1>  -0.1430 
 13 C        6.1340    -3.9850     0.2160 C.2   1 <1>   0.5690 
 14 C       -1.7650    -6.0650    -0.9060 C.3   1 <1>  -0.0970 
 15 O        6.6460    -3.1270     0.8950 O.2   1 <1>  -0.5700 
 16 C        6.9840    -5.2250    -0.1220 C.3   1 <1>   0.4040 
 17 N        8.4680    -4.9950     0.0540 N.4   1 <1>  -0.9590 
 18 C        9.0100    -4.0660    -0.9810 C.3   1 <1>   0.3430 
 19 C        9.2420    -6.2640     0.1530 C.3   1 <1>   0.3430 
 20 C       10.4640    -3.7220    -0.6510 C.3   1 <1>  -0.1600 
 21 C       10.6990    -5.9520     0.5000 C.3   1 <1>  -0.1600 
 22 C       11.3300    -4.9800    -0.5050 C.3   1 <1>  -0.1600 
 23 H        2.8190    -0.6960     1.8650 H     1 <1>   0.3700 
 24 H        2.8570    -3.6460     1.5270 H     1 <1>   0.0800 
 25 H        4.1400    -2.6320     2.1450 H     1 <1>   0.0800 
 26 H        0.0160    -1.7900    -1.3540 H     1 <1>   0.1500 
 27 H        0.5800    -3.7500     2.3730 H     1 <1>   0.1500 
 28 H        4.6070    -1.7730    -0.0850 H     1 <1>   0.0800 
 29 H        3.2320    -2.6270    -0.7490 H     1 <1>   0.0800 
 30 H       -1.2110    -3.7360    -2.1980 H     1 <1>   0.1500 
 31 H       -0.6420    -5.7010     1.5410 H     1 <1>   0.1500 
 32 H        4.3930    -4.6010    -0.7790 H     1 <1>   0.3700 
 33 H       -2.8040    -5.9710    -0.6480 H     1 <1>   0.0800 
 34 H       -1.3810    -6.9700    -0.4720 H     1 <1>   0.0800 
 35 H       -1.6800    -6.1400    -1.9760 H     1 <1>   0.0800 
 36 H        6.7800    -5.5240    -1.1360 H     1 <1>   0.0800 
 37 H        6.6680    -6.0190     0.5320 H     1 <1>   0.0800 
 38 H        8.5590    -4.4840     0.9480 H     1 <1>   0.4500 
 39 H        8.4280    -3.1570    -1.0040 H     1 <1>   0.0800 
 40 H        8.9630    -4.5290    -1.9530 H     1 <1>   0.0800 
 41 H        9.2030    -6.7900    -0.7880 H     1 <1>   0.0800 
 42 H        8.8210    -6.8990     0.9170 H     1 <1>   0.0800 
 43 H       10.4940    -3.1480     0.2600 H     1 <1>   0.0800 
 44 H       10.8650    -3.1010    -1.4330 H     1 <1>   0.0800 
 45 H       11.2630    -6.8690     0.5090 H     1 <1>   0.0800 
 46 H       10.7480    -5.5370     1.4920 H     1 <1>   0.0800 
 47 H       12.3190    -4.7060    -0.1780 H     1 <1>   0.0800 
 48 H       11.4250    -5.4640    -1.4640 H     1 <1>   0.0800 
@<TRIPOS>BOND
  1   1   2  2   
  2   2   3  am  
  3   2   4  1   
  4   3   5  1   
  5   3  23  1   
  6   4   6  ar  
  7   4   7  ar  
  8   5   8  1   
  9   5  24  1   
 10   5  25  1   
 11   6   9  ar  
 12   6  26  1   
 13   7  10  ar  
 14   7  27  1   
 15   8  11  1   
 16   8  28  1   
 17   8  29  1   
 18   9  12  ar  
 19   9  30  1   
 20  10  12  ar  
 21  10  31  1   
 22  11  13  am  
 23  11  32  1   
 24  12  14  1   
 25  13  15  2   
 26  13  16  1   
 27  14  33  1   
 28  14  34  1   
 29  14  35  1   
 30  16  17  1   
 31  16  36  1   
 32  16  37  1   
 33  17  18  1   
 34  17  19  1   
 35  17  38  1   
 36  18  20  1   
 37  18  39  1   
 38  18  40  1   
 39  19  21  1   
 40  19  41  1   
 41  19  42  1   
 42  20  22  1   
 43  20  43  1   
 44  20  44  1   
 45  21  22  1   
 46  21  45  1   
 47  21  46  1   
 48  22  47  1   
 49  22  48  1   
@<TRIPOS>SUBSTRUCTURE
  1 ****  11 GROUP 4 **** **** 0

# MOE 2024.06 (io_trps.svl 2023.06)
