@<TRIPOS>MOLECULE
3-[3-(3-Ethoxy-4-methoxy-phenyl)-[1,2,4]oxadiazol-5-yl]-N-ethyl-propionamide
44 45 1 0 0 
SMALL
USER_CHARGES


@<TRIPOS>ATOM
  1 O        0.0890    -0.6660    -1.8710 O.2   1 <1>  -0.5700 
  2 C        0.5500    -1.6250    -1.3110 C.2   1 <1>   0.5690 
  3 N        1.7530    -1.5300    -0.6980 N.am  1 <1>  -0.7300 
  4 C       -0.2530    -2.9080    -1.2950 C.3   1 <1>  -0.0990 
  5 C        2.5160    -2.5320     0.0740 C.3   1 <1>   0.1400 
  6 C       -1.0940    -3.0010    -0.0160 C.3   1 <1>   0.0200 
  7 C        2.7910    -1.9620     1.4600 C.3   1 <1>  -0.2400 
  8 C       -1.8230    -4.3260     0.0660 C.2   1 <1>   0.2980 
  9 O       -1.1260    -5.4150     0.2560 O.3   1 <1>  -0.0190 
 10 N       -3.0750    -4.4910    -0.0330 N.2   1 <1>  -0.5650 
 11 N       -2.0140    -6.3580     0.2770 N.2   1 <1>  -0.4100 
 12 C       -3.1700    -5.8180     0.1060 C.2   1 <1>   0.4620 
 13 C       -4.4390    -6.5260     0.0640 C.ar  1 <1>   0.0540 
 14 C       -5.6450    -5.8630    -0.1580 C.ar  1 <1>  -0.1500 
 15 C       -4.5040    -7.9070     0.2480 C.ar  1 <1>  -0.1500 
 16 C       -6.8590    -6.5240    -0.1950 C.ar  1 <1>   0.0820 
 17 C       -5.7050    -8.5920     0.2050 C.ar  1 <1>  -0.1500 
 18 O       -7.9440    -5.7300    -0.4100 O.3   1 <1>  -0.3630 
 19 C       -6.9010    -7.9170    -0.0250 C.ar  1 <1>   0.0820 
 20 C       -9.1630    -5.9880     0.2480 C.3   1 <1>   0.1200 
 21 O       -8.0900    -8.5790    -0.1040 O.3   1 <1>  -0.3630 
 22 C       -9.9530    -4.6840     0.3070 C.3   1 <1>  -0.2400 
 23 C       -8.1650    -9.9880    -0.1260 C.3   1 <1>   0.0400 
 24 H        2.1980    -0.6130    -0.7800 H     1 <1>   0.3700 
 25 H        0.4060    -3.7510    -1.3850 H     1 <1>   0.0800 
 26 H       -0.9060    -2.9150    -2.1490 H     1 <1>   0.0800 
 27 H        3.4450    -2.7370    -0.4320 H     1 <1>   0.0800 
 28 H        1.9650    -3.4520     0.1620 H     1 <1>   0.0800 
 29 H       -1.8120    -2.2010    -0.0040 H     1 <1>   0.0800 
 30 H       -0.4660    -2.8990     0.8510 H     1 <1>   0.0800 
 31 H        3.3750    -1.0620     1.3870 H     1 <1>   0.0800 
 32 H        3.3430    -2.6780     2.0420 H     1 <1>   0.0800 
 33 H        1.8670    -1.7500     1.9670 H     1 <1>   0.0800 
 34 H       -5.6450    -4.7970    -0.3050 H     1 <1>   0.1500 
 35 H       -3.5960    -8.4560     0.4270 H     1 <1>   0.1500 
 36 H       -5.6830    -9.6540     0.3520 H     1 <1>   0.1500 
 37 H       -8.9500    -6.3520     1.2390 H     1 <1>   0.0800 
 38 H       -9.7000    -6.7320    -0.3130 H     1 <1>   0.0800 
 39 H       -9.4000    -3.9430     0.8550 H     1 <1>   0.0800 
 40 H      -10.8920    -4.8500     0.8010 H     1 <1>   0.0800 
 41 H      -10.1460    -4.3260    -0.6890 H     1 <1>   0.0800 
 42 H       -9.1940   -10.2640    -0.2710 H     1 <1>   0.0800 
 43 H       -7.8140   -10.3720     0.8150 H     1 <1>   0.0800 
 44 H       -7.5700   -10.3570    -0.9420 H     1 <1>   0.0800 
@<TRIPOS>BOND
  1   1   2  2   
  2   2   3  am  
  3   2   4  1   
  4   3   5  1   
  5   3  24  1   
  6   4   6  1   
  7   4  25  1   
  8   4  26  1   
  9   5   7  1   
 10   5  27  1   
 11   5  28  1   
 12   6   8  1   
 13   6  29  1   
 14   6  30  1   
 15   7  31  1   
 16   7  32  1   
 17   7  33  1   
 18   8   9  1   
 19   8  10  2   
 20   9  11  1   
 21  10  12  1   
 22  11  12  2   
 23  12  13  1   
 24  13  14  ar  
 25  13  15  ar  
 26  14  16  ar  
 27  14  34  1   
 28  15  17  ar  
 29  15  35  1   
 30  16  18  1   
 31  16  19  ar  
 32  17  19  ar  
 33  17  36  1   
 34  18  20  1   
 35  19  21  1   
 36  20  22  1   
 37  20  37  1   
 38  20  38  1   
 39  21  23  1   
 40  22  39  1   
 41  22  40  1   
 42  22  41  1   
 43  23  42  1   
 44  23  43  1   
 45  23  44  1   
@<TRIPOS>SUBSTRUCTURE
  1 ****  12 GROUP 4 **** **** 0

# MOE 2024.06 (io_trps.svl 2023.06)
