@<TRIPOS>MOLECULE
2-(8-Cyclohexyl-1,6-dimethyl-2,4-dioxo-1,4,5,6,7,8-hexahydro-2H-1,3,4b,8,9-penta
54 57 1 0 0 
SMALL
USER_CHARGES


@<TRIPOS>ATOM
  1 O        0.6660    -0.1170    -0.3770 O.2   1 <1>  -0.5740 
  2 C        1.6350     0.5440    -0.0600 C.2   1 <1>   0.6860 
  3 N        1.4560     1.8200     0.4560 N.am  1 <1>  -0.4250 
  4 N        2.9140     0.0270    -0.2180 N.am  1 <1>  -0.4410 
  5 C        2.5340     2.5920     0.8550 C.2   1 <1>   0.7000 
  6 C        0.1780     2.5300     0.1280 C.3   1 <1>   0.1950 
  7 C        3.9840     0.8430     0.0950 C.2   1 <1>   0.4210 
  8 C        3.1230    -1.3340    -0.7940 C.3   1 <1>   0.0530 
  9 O        2.3590     3.6670     1.4050 O.2   1 <1>  -0.5740 
 10 C        3.8480     2.0810     0.6160 C.2   1 <1>   0.2710 
 11 C        0.2230     3.1040    -1.2910 C.2   1 <1>   0.5650 
 12 N        5.3140     0.5760    -0.0470 N.pl3 1 <1>  -0.7030 
 13 N        5.1510     2.5720     0.7940 N.pl3 1 <1>  -0.7670 
 14 O        1.2900     3.2830    -1.8300 O.2   1 <1>  -0.5740 
 15 N       -0.9160     3.4080    -1.9440 N.am  1 <1>  -0.8030 
 16 C        6.0000     1.6370     0.3800 C.cat 1 <1>   1.0690 
 17 C        5.5370     3.9000     1.3080 C.3   1 <1>   0.3480 
 18 N        7.3380     1.7990     0.4150 N.pl3 1 <1>  -0.5960 
 19 C        6.9370     4.2520     0.7800 C.3   1 <1>  -0.0870 
 20 C        8.3470     0.7740     0.0260 C.3   1 <1>   0.2410 
 21 C        7.9160     3.0740     0.9390 C.3   1 <1>   0.1610 
 22 C        7.4860     5.5070     1.4760 C.3   1 <1>  -0.2460 
 23 C        8.2570     0.4490    -1.4740 C.3   1 <1>  -0.1670 
 24 C        8.2430    -0.4810     0.9080 C.3   1 <1>  -0.1670 
 25 C        9.3010    -0.6040    -1.8680 C.3   1 <1>  -0.1670 
 26 C        9.2890    -1.5250     0.4940 C.3   1 <1>  -0.1670 
 27 C        9.1790    -1.8630    -0.9980 C.3   1 <1>  -0.1670 
 28 H        0.0110     3.3330     0.8230 H     1 <1>   0.0730 
 29 H       -0.6500     1.8500     0.2100 H     1 <1>   0.0730 
 30 H        2.2540    -1.9500    -0.6310 H     1 <1>   0.0730 
 31 H        3.9640    -1.8140    -0.3270 H     1 <1>   0.0730 
 32 H        3.2940    -1.2560    -1.8530 H     1 <1>   0.0730 
 33 H        5.7460    -0.2610    -0.4260 H     1 <1>   0.4450 
 34 H       -0.8590     3.7790    -2.8950 H     1 <1>   0.3640 
 35 H       -1.8590     3.2590    -1.5830 H     1 <1>   0.3640 
 36 H        5.5370     3.8750     2.3860 H     1 <1>   0.0730 
 37 H        4.8250     4.6430     0.9850 H     1 <1>   0.0730 
 38 H        6.8500     4.4780    -0.2700 H     1 <1>   0.0730 
 39 H        9.3300     1.1840     0.1940 H     1 <1>   0.0730 
 40 H        8.8230     3.3070     0.4060 H     1 <1>   0.0730 
 41 H        8.1640     2.9380     1.9790 H     1 <1>   0.0730 
 42 H        7.6020     5.3450     2.5340 H     1 <1>   0.0730 
 43 H        6.8200     6.3400     1.3290 H     1 <1>   0.0730 
 44 H        8.4450     5.7740     1.0660 H     1 <1>   0.0730 
 45 H        8.4350     1.3430    -2.0470 H     1 <1>   0.0730 
 46 H        7.2880     0.0680    -1.7340 H     1 <1>   0.0730 
 47 H        7.2750    -0.9370     0.8290 H     1 <1>   0.0730 
 48 H        8.4100    -0.2130     1.9370 H     1 <1>   0.0730 
 49 H       10.2900    -0.1920    -1.7550 H     1 <1>   0.0730 
 50 H        9.1760    -0.8700    -2.9040 H     1 <1>   0.0730 
 51 H        9.1580    -2.4210     1.0770 H     1 <1>   0.0730 
 52 H       10.2770    -1.1470     0.6990 H     1 <1>   0.0730 
 53 H        9.9590    -2.5560    -1.2640 H     1 <1>   0.0730 
 54 H        8.2360    -2.3450    -1.1910 H     1 <1>   0.0730 
@<TRIPOS>BOND
  1   1   2  2   
  2   2   3  am  
  3   2   4  am  
  4   3   5  am  
  5   3   6  1   
  6   4   7  1   
  7   4   8  1   
  8   5   9  2   
  9   5  10  1   
 10   6  11  1   
 11   6  28  1   
 12   6  29  1   
 13   7  10  2   
 14   7  12  1   
 15   8  30  1   
 16   8  31  1   
 17   8  32  1   
 18  10  13  1   
 19  11  14  2   
 20  11  15  am  
 21  12  16  ar  
 22  12  33  1   
 23  13  16  ar  
 24  13  17  1   
 25  15  34  1   
 26  15  35  1   
 27  16  18  ar  
 28  17  19  1   
 29  17  36  1   
 30  17  37  1   
 31  18  20  1   
 32  18  21  1   
 33  19  21  1   
 34  19  22  1   
 35  19  38  1   
 36  20  23  1   
 37  20  24  1   
 38  20  39  1   
 39  21  40  1   
 40  21  41  1   
 41  22  42  1   
 42  22  43  1   
 43  22  44  1   
 44  23  25  1   
 45  23  45  1   
 46  23  46  1   
 47  24  26  1   
 48  24  47  1   
 49  24  48  1   
 50  25  27  1   
 51  25  49  1   
 52  25  50  1   
 53  26  27  1   
 54  26  51  1   
 55  26  52  1   
 56  27  53  1   
 57  27  54  1   
@<TRIPOS>SUBSTRUCTURE
  1 ****   7 GROUP 4 **** **** 0

# MOE 2024.06 (io_trps.svl 2023.06)
