@<TRIPOS>MOLECULE
N-[2-(2-Oxo-2-pyrrolidin-1-yl-ethylsulfanyl)-benzothiazol-6-yl]-butyramide
45 47 1 0 0 
SMALL
USER_CHARGES


@<TRIPOS>ATOM
  1 S       -0.3790     1.7530    -0.3540 S.3   1 <1>  -0.0800 
  2 C        0.7260     0.6550     0.4560 C.2   1 <1>   0.4340 
  3 C       -1.6900     0.6700     0.0780 C.ar  1 <1>   0.0400 
  4 S        2.4410     1.1270     0.4430 S.3   1 <1>  -0.2860 
  5 N        0.2210    -0.3840     0.9820 N.2   1 <1>  -0.5650 
  6 C       -1.1570    -0.3980     0.7820 C.ar  1 <1>   0.2270 
  7 C       -3.0350     0.8040    -0.2040 C.ar  1 <1>  -0.1500 
  8 C        3.2380    -0.2210     1.4380 C.3   1 <1>   0.1310 
  9 C       -2.0290    -1.3810     1.2230 C.ar  1 <1>  -0.1500 
 10 C       -3.9070    -0.1810     0.2420 C.ar  1 <1>   0.1170 
 11 C        4.7540    -0.1140     1.3800 C.2   1 <1>   0.5690 
 12 C       -3.3830    -1.2700     0.9520 C.ar  1 <1>  -0.1500 
 13 N       -5.2720    -0.0500    -0.0530 N.am  1 <1>  -0.5470 
 14 O        5.3340     0.2370     2.3820 O.2   1 <1>  -0.5700 
 15 N        5.4360    -0.4360     0.2370 N.am  1 <1>  -0.6600 
 16 C       -6.3760    -0.6040     0.5330 C.2   1 <1>   0.5690 
 17 C        4.8440    -0.8500    -1.0540 C.3   1 <1>   0.1400 
 18 C        6.9080    -0.3300     0.1390 C.3   1 <1>   0.1400 
 19 O       -6.3380    -1.3300     1.4940 O.2   1 <1>  -0.5700 
 20 C       -7.7290    -0.2650    -0.0640 C.3   1 <1>  -0.0990 
 21 C        6.0360    -1.2690    -1.9080 C.3   1 <1>  -0.1600 
 22 C        7.2100    -0.4700    -1.3490 C.3   1 <1>  -0.1600 
 23 C       -7.9690    -0.9780    -1.4050 C.3   1 <1>  -0.1600 
 24 C       -9.3420    -0.6270    -1.9840 C.3   1 <1>  -0.2400 
 25 H       -3.3880     1.6580    -0.7520 H     1 <1>   0.1500 
 26 H        2.9040    -1.1600     1.0410 H     1 <1>   0.0800 
 27 H        2.8910    -0.1110     2.4490 H     1 <1>   0.0800 
 28 H       -1.6400    -2.2200     1.7710 H     1 <1>   0.1500 
 29 H       -4.0430    -2.0460     1.2970 H     1 <1>   0.1500 
 30 H       -5.4810     0.5860    -0.8180 H     1 <1>   0.3700 
 31 H        4.3460    -0.0060    -1.5020 H     1 <1>   0.0800 
 32 H        4.1490    -1.6620    -0.9250 H     1 <1>   0.0800 
 33 H        7.3540    -1.1350     0.6960 H     1 <1>   0.0800 
 34 H        7.2510     0.6130     0.5300 H     1 <1>   0.0800 
 35 H       -7.7970     0.8000    -0.1930 H     1 <1>   0.0800 
 36 H       -8.4910    -0.5580     0.6360 H     1 <1>   0.0800 
 37 H        5.8670    -1.0760    -2.9530 H     1 <1>   0.0800 
 38 H        6.2120    -2.3220    -1.7700 H     1 <1>   0.0800 
 39 H        8.1560    -0.9520    -1.5200 H     1 <1>   0.0800 
 40 H        7.2300     0.5100    -1.7930 H     1 <1>   0.0800 
 41 H       -7.9090    -2.0440    -1.2540 H     1 <1>   0.0800 
 42 H       -7.2050    -0.7020    -2.1120 H     1 <1>   0.0800 
 43 H      -10.1240    -0.9230    -1.3060 H     1 <1>   0.0800 
 44 H       -9.4900    -1.1430    -2.9170 H     1 <1>   0.0800 
 45 H       -9.4200     0.4310    -2.1630 H     1 <1>   0.0800 
@<TRIPOS>BOND
  1   1   2  1   
  2   1   3  1   
  3   2   4  1   
  4   2   5  2   
  5   3   6  ar  
  6   3   7  ar  
  7   4   8  1   
  8   5   6  1   
  9   6   9  ar  
 10   7  10  ar  
 11   7  25  1   
 12   8  11  1   
 13   8  26  1   
 14   8  27  1   
 15   9  12  ar  
 16   9  28  1   
 17  10  12  ar  
 18  10  13  1   
 19  11  14  2   
 20  11  15  am  
 21  12  29  1   
 22  13  16  am  
 23  13  30  1   
 24  15  17  1   
 25  15  18  1   
 26  16  19  2   
 27  16  20  1   
 28  17  21  1   
 29  17  31  1   
 30  17  32  1   
 31  18  22  1   
 32  18  33  1   
 33  18  34  1   
 34  20  23  1   
 35  20  35  1   
 36  20  36  1   
 37  21  22  1   
 38  21  37  1   
 39  21  38  1   
 40  22  39  1   
 41  22  40  1   
 42  23  24  1   
 43  23  41  1   
 44  23  42  1   
 45  24  43  1   
 46  24  44  1   
 47  24  45  1   
@<TRIPOS>SUBSTRUCTURE
  1 ****   6 GROUP 4 **** **** 0

# MOE 2024.06 (io_trps.svl 2023.06)
