@<TRIPOS>MOLECULE
2-(3,4-Dimethoxy-benzenesulfonylamino)-4,5,6,7-tetrahydro-benzo[b]thiophene-3-ca
47 49 1 0 0 
SMALL
USER_CHARGES


@<TRIPOS>ATOM
  1 S       -0.0680    -0.7750     0.0100 S.o2  1 <1>   1.4970 
  2 O       -0.1920    -1.4610    -1.2630 O.2   1 <1>  -0.6500 
  3 O       -0.1480    -1.5510     1.2350 O.2   1 <1>  -0.6500 
  4 N        1.2900     0.1740     0.0210 N.2   1 <1>  -0.6380 
  5 C       -1.4160     0.4490     0.0770 C.ar  1 <1>  -0.0090 
  6 C        2.4640    -0.3500    -0.0040 C.2   1 <1>   0.5770 
  7 C       -2.7360     0.0190     0.0090 C.ar  1 <1>  -0.1500 
  8 C       -1.1890     1.8160     0.2020 C.ar  1 <1>  -0.1500 
  9 S        2.6780    -2.1290    -0.0840 S.3   1 <1>  -0.2420 
 10 C        3.7530     0.2620     0.0070 C.2   1 <1>   0.0140 
 11 C       -3.8130     0.9020     0.0610 C.ar  1 <1>   0.0820 
 12 C       -2.2420     2.7110     0.2480 C.ar  1 <1>  -0.1500 
 13 C        4.4280    -2.0010    -0.0780 C.2   1 <1>  -0.0370 
 14 C        4.8150    -0.7190    -0.0050 C.2   1 <1>  -0.1380 
 15 C        3.9440     1.6610     0.0130 C.2   1 <1>  -0.0730 
 16 O       -5.1000     0.4480     0.0250 O.3   1 <1>  -0.3630 
 17 C       -3.5540     2.2780     0.1700 C.ar  1 <1>   0.0820 
 18 C        5.2610    -3.2600    -0.1400 C.3   1 <1>  -0.0220 
 19 C        6.3070    -0.4040     0.0660 C.3   1 <1>  -0.0220 
 20 O        3.0290     2.4800     0.1460 O.3   1 <1>  -0.8500 
 21 O        5.1760     2.1860    -0.1480 O.3   1 <1>  -0.3570 
 22 C       -5.4160    -0.9260     0.1010 C.3   1 <1>   0.0400 
 23 O       -4.4890     3.2690     0.2130 O.3   1 <1>  -0.3630 
 24 C        6.7190    -2.8810    -0.4450 C.3   1 <1>  -0.1600 
 25 C        7.1610    -1.6530     0.3720 C.3   1 <1>  -0.1600 
 26 C        5.3390     3.5860    -0.1560 C.3   1 <1>   0.0400 
 27 C       -5.7350     3.1390    -0.4350 C.3   1 <1>   0.0400 
 28 H       -2.8940    -1.0380    -0.0870 H     1 <1>   0.1500 
 29 H       -0.1800     2.1990     0.2630 H     1 <1>   0.1500 
 30 H       -2.0400     3.7630     0.3430 H     1 <1>   0.1500 
 31 H        4.8830    -3.9140    -0.9060 H     1 <1>   0.0800 
 32 H        5.1960    -3.7640     0.8080 H     1 <1>   0.0800 
 33 H        6.4810     0.3220     0.8390 H     1 <1>   0.0800 
 34 H        6.6070     0.0270    -0.8730 H     1 <1>   0.0800 
 35 H       -6.4860    -1.0210     0.1350 H     1 <1>   0.0800 
 36 H       -4.9850    -1.3350     0.9980 H     1 <1>   0.0800 
 37 H       -5.0340    -1.4220    -0.7740 H     1 <1>   0.0800 
 38 H        6.8070    -2.6480    -1.4920 H     1 <1>   0.0800 
 39 H        7.3620    -3.7180    -0.2340 H     1 <1>   0.0800 
 40 H        7.0710    -1.8820     1.4200 H     1 <1>   0.0800 
 41 H        8.1950    -1.4310     0.1710 H     1 <1>   0.0800 
 42 H        6.3790     3.8090    -0.2950 H     1 <1>   0.0800 
 43 H        4.9860     3.9700     0.7850 H     1 <1>   0.0800 
 44 H        4.7490     3.9870    -0.9600 H     1 <1>   0.0800 
 45 H       -6.1510     4.1210    -0.5610 H     1 <1>   0.0800 
 46 H       -6.3860     2.5450     0.1810 H     1 <1>   0.0800 
 47 H       -5.5860     2.6740    -1.3940 H     1 <1>   0.0800 
@<TRIPOS>BOND
  1   1   2  2   
  2   1   3  2   
  3   1   4  1   
  4   1   5  1   
  5   4   6  2   
  6   5   7  ar  
  7   5   8  ar  
  8   6   9  1   
  9   6  10  1   
 10   7  11  ar  
 11   7  28  1   
 12   8  12  ar  
 13   8  29  1   
 14   9  13  1   
 15  10  14  1   
 16  10  15  2   
 17  11  16  1   
 18  11  17  ar  
 19  12  17  ar  
 20  12  30  1   
 21  13  14  2   
 22  13  18  1   
 23  14  19  1   
 24  15  20  1   
 25  15  21  1   
 26  16  22  1   
 27  17  23  1   
 28  18  24  1   
 29  18  31  1   
 30  18  32  1   
 31  19  25  1   
 32  19  33  1   
 33  19  34  1   
 34  21  26  1   
 35  22  35  1   
 36  22  36  1   
 37  22  37  1   
 38  23  27  1   
 39  24  25  1   
 40  24  38  1   
 41  24  39  1   
 42  25  40  1   
 43  25  41  1   
 44  26  42  1   
 45  26  43  1   
 46  26  44  1   
 47  27  45  1   
 48  27  46  1   
 49  27  47  1   
@<TRIPOS>SUBSTRUCTURE
  1 ****   4 GROUP 4 **** **** 0

# MOE 2024.06 (io_trps.svl 2023.06)
