@<TRIPOS>MOLECULE
1-(3-Chloro-4-methoxy-benzenesulfonyl)-piperidine-4-carboxylic acid amide
38 39 1 0 0 
SMALL
USER_CHARGES


@<TRIPOS>ATOM
  1 CL       2.5350    -1.6530     3.2390 Cl    1 <1>  -0.1770 
  2 C        2.6070    -1.4360     1.5040 C.ar  1 <1>   0.1770 
  3 C        1.6940    -2.0790     0.6760 C.ar  1 <1>   0.0830 
  4 C        3.5920    -0.6150     0.9910 C.ar  1 <1>  -0.1500 
  5 O        0.7510    -2.8750     1.2450 O.3   1 <1>  -0.3630 
  6 C        1.7930    -1.8740    -0.6970 C.ar  1 <1>  -0.1500 
  7 C        3.7020    -0.4100    -0.3790 C.ar  1 <1>  -0.0090 
  8 C       -0.2280    -3.5380     0.4750 C.3   1 <1>   0.0400 
  9 C        2.7840    -1.0500    -1.2070 C.ar  1 <1>  -0.1500 
 10 S        4.9930     0.6680    -1.0590 S.o2  1 <1>   1.4470 
 11 O        5.2410     0.3290    -2.4440 O.2   1 <1>  -0.6500 
 12 O        4.6920     2.0380    -0.7080 O.2   1 <1>  -0.6500 
 13 N        6.3750     0.2090    -0.1900 N.am  1 <1>  -0.8490 
 14 C        7.4190     1.2340    -0.2620 C.3   1 <1>   0.1960 
 15 C        6.8780    -1.1040    -0.6080 C.3   1 <1>   0.1960 
 16 C        8.5870     0.8670     0.6590 C.3   1 <1>  -0.1600 
 17 C        8.0150    -1.5500     0.3130 C.3   1 <1>  -0.1600 
 18 C        9.1570    -0.5200     0.3220 C.3   1 <1>  -0.0190 
 19 C       10.2670    -0.9180     1.2920 C.2   1 <1>   0.5690 
 20 O       10.0240    -1.1110     2.4550 O.2   1 <1>  -0.5700 
 21 N       11.5280    -1.0510     0.8430 N.am  1 <1>  -0.8000 
 22 H        4.2800    -0.1330     1.6640 H     1 <1>   0.1500 
 23 H        1.1120    -2.3440    -1.3820 H     1 <1>   0.1500 
 24 H       -0.8600    -4.0910     1.1460 H     1 <1>   0.0800 
 25 H        0.2600    -4.2130    -0.2050 H     1 <1>   0.0800 
 26 H       -0.8110    -2.8060    -0.0550 H     1 <1>   0.0800 
 27 H        2.8480    -0.9000    -2.2730 H     1 <1>   0.1500 
 28 H        7.0210     2.1840     0.0570 H     1 <1>   0.0800 
 29 H        7.7610     1.3380    -1.2790 H     1 <1>   0.0800 
 30 H        7.2280    -1.0590    -1.6270 H     1 <1>   0.0800 
 31 H        6.0850    -1.8310    -0.5580 H     1 <1>   0.0800 
 32 H        8.2390     0.8790     1.6780 H     1 <1>   0.0800 
 33 H        9.3590     1.6100     0.5690 H     1 <1>   0.0800 
 34 H        8.3890    -2.5040    -0.0150 H     1 <1>   0.0800 
 35 H        7.6260    -1.6750     1.3090 H     1 <1>   0.0800 
 36 H        9.5750    -0.4790    -0.6670 H     1 <1>   0.0800 
 37 H       12.2590    -1.3140     1.5060 H     1 <1>   0.3700 
 38 H       11.8200    -0.9020    -0.1210 H     1 <1>   0.3700 
@<TRIPOS>BOND
  1   1   2  1   
  2   2   3  ar  
  3   2   4  ar  
  4   3   5  1   
  5   3   6  ar  
  6   4   7  ar  
  7   4  22  1   
  8   5   8  1   
  9   6   9  ar  
 10   6  23  1   
 11   7   9  ar  
 12   7  10  1   
 13   8  24  1   
 14   8  25  1   
 15   8  26  1   
 16   9  27  1   
 17  10  11  2   
 18  10  12  2   
 19  10  13  am  
 20  13  14  1   
 21  13  15  1   
 22  14  16  1   
 23  14  28  1   
 24  14  29  1   
 25  15  17  1   
 26  15  30  1   
 27  15  31  1   
 28  16  18  1   
 29  16  32  1   
 30  16  33  1   
 31  17  18  1   
 32  17  34  1   
 33  17  35  1   
 34  18  19  1   
 35  18  36  1   
 36  19  20  2   
 37  19  21  am  
 38  21  37  1   
 39  21  38  1   
@<TRIPOS>SUBSTRUCTURE
  1 ****  13 GROUP 4 **** **** 0

# MOE 2024.06 (io_trps.svl 2023.06)
