@<TRIPOS>MOLECULE
2-[2-Methyl-4-(pyrrolidine-1-sulfonyl)-phenoxy]-N-pyridin-4-ylmethyl-acetamide
50 52 1 0 0 
SMALL
USER_CHARGES


@<TRIPOS>ATOM
  1 S        0.3760    -0.9990    -1.1410 S.o2  1 <1>   1.4470 
  2 O        0.2760    -2.4190    -0.8880 O.2   1 <1>  -0.6500 
  3 O        0.1820    -0.5000    -2.4870 O.2   1 <1>  -0.6500 
  4 N       -0.7850    -0.2500    -0.1610 N.am  1 <1>  -0.8490 
  5 C        1.9320    -0.3770    -0.4540 C.ar  1 <1>  -0.0090 
  6 C       -2.1100    -0.8200    -0.3220 C.3   1 <1>   0.1960 
  7 C       -0.9460     1.1760    -0.3900 C.3   1 <1>   0.1960 
  8 C        2.8370     0.3330    -1.2340 C.ar  1 <1>  -0.1500 
  9 C        2.2500    -0.5920     0.8810 C.ar  1 <1>  -0.1500 
 10 C       -3.0480     0.2060     0.3050 C.3   1 <1>  -0.1600 
 11 C       -2.2610     1.5170     0.2990 C.3   1 <1>  -0.1600 
 12 C        4.0230     0.8190    -0.7090 C.ar  1 <1>  -0.1430 
 13 C        3.4280    -0.1160     1.4250 C.ar  1 <1>  -0.1500 
 14 C        4.3220     0.5940     0.6300 C.ar  1 <1>   0.0820 
 15 C        4.9850     1.5900    -1.6040 C.3   1 <1>  -0.0970 
 16 O        5.4930     1.0860     1.1020 O.3   1 <1>  -0.3630 
 17 C        5.9650     0.7860     2.4090 C.3   1 <1>   0.1810 
 18 C        7.3480     1.3830     2.6280 C.2   1 <1>   0.5690 
 19 O        7.9660     1.0830     3.6210 O.2   1 <1>  -0.5700 
 20 N        7.8540     2.2350     1.7030 N.am  1 <1>  -0.7300 
 21 C        9.2060     2.8090     1.7160 C.3   1 <1>   0.2840 
 22 C        9.6510     2.9780     0.2760 C.ar  1 <1>  -0.1430 
 23 C        9.6830     4.2100    -0.3460 C.ar  1 <1>  -0.1500 
 24 C       10.0370     1.8970    -0.4910 C.ar  1 <1>  -0.1500 
 25 C       10.0890     4.2990    -1.6670 C.ar  1 <1>   0.1600 
 26 C       10.4260     2.0940    -1.8060 C.ar  1 <1>   0.1600 
 27 N       10.4600     3.2700    -2.4120 N.ar  1 <1>  -0.6200 
 28 H       -2.1770    -1.7810     0.1630 H     1 <1>   0.0800 
 29 H       -2.3360    -0.9320    -1.3710 H     1 <1>   0.0800 
 30 H       -1.0330     1.3810    -1.4450 H     1 <1>   0.0800 
 31 H       -0.1200     1.7330     0.0200 H     1 <1>   0.0800 
 32 H        2.6020     0.5040    -2.2710 H     1 <1>   0.1500 
 33 H        1.5580    -1.1410     1.4990 H     1 <1>   0.1500 
 34 H       -3.2830    -0.0850     1.3140 H     1 <1>   0.0800 
 35 H       -3.9600     0.2790    -0.2610 H     1 <1>   0.0800 
 36 H       -2.7780     2.3010    -0.2250 H     1 <1>   0.0800 
 37 H       -2.0650     1.8370     1.3080 H     1 <1>   0.0800 
 38 H        3.6240    -0.3080     2.4620 H     1 <1>   0.1500 
 39 H        4.6180     1.6470    -2.6130 H     1 <1>   0.0800 
 40 H        5.9430     1.1010    -1.6180 H     1 <1>   0.0800 
 41 H        5.1110     2.5890    -1.2280 H     1 <1>   0.0800 
 42 H        6.0180    -0.2820     2.5160 H     1 <1>   0.0800 
 43 H        5.2790     1.1990     3.1240 H     1 <1>   0.0800 
 44 H        7.3060     2.4120     0.8570 H     1 <1>   0.3700 
 45 H        9.8800     2.1540     2.2430 H     1 <1>   0.0800 
 46 H        9.1860     3.7590     2.2220 H     1 <1>   0.0800 
 47 H        9.3960     5.1020     0.1820 H     1 <1>   0.1500 
 48 H       10.0350     0.9050    -0.0770 H     1 <1>   0.1500 
 49 H       10.1090     5.2680    -2.1370 H     1 <1>   0.1500 
 50 H       10.7240     1.2400    -2.3890 H     1 <1>   0.1500 
@<TRIPOS>BOND
  1   1   2  2   
  2   1   3  2   
  3   1   4  am  
  4   1   5  1   
  5   4   6  1   
  6   4   7  1   
  7   5   8  ar  
  8   5   9  ar  
  9   6  10  1   
 10   6  28  1   
 11   6  29  1   
 12   7  11  1   
 13   7  30  1   
 14   7  31  1   
 15   8  12  ar  
 16   8  32  1   
 17   9  13  ar  
 18   9  33  1   
 19  10  11  1   
 20  10  34  1   
 21  10  35  1   
 22  11  36  1   
 23  11  37  1   
 24  12  14  ar  
 25  12  15  1   
 26  13  14  ar  
 27  13  38  1   
 28  14  16  1   
 29  15  39  1   
 30  15  40  1   
 31  15  41  1   
 32  16  17  1   
 33  17  18  1   
 34  17  42  1   
 35  17  43  1   
 36  18  19  2   
 37  18  20  am  
 38  20  21  1   
 39  20  44  1   
 40  21  22  1   
 41  21  45  1   
 42  21  46  1   
 43  22  23  ar  
 44  22  24  ar  
 45  23  25  ar  
 46  23  47  1   
 47  24  26  ar  
 48  24  48  1   
 49  25  27  ar  
 50  25  49  1   
 51  26  27  ar  
 52  26  50  1   
@<TRIPOS>SUBSTRUCTURE
  1 ****  14 GROUP 4 **** **** 0

# MOE 2024.06 (io_trps.svl 2023.06)
