@<TRIPOS>MOLECULE
7-(4-Ethoxy-3-methoxy-phenyl)-5-methyl-4,7-dihydro-[1,2,4]triazolo[1,5-a]pyrimid
44 46 1 0 0 
SMALL
USER_CHARGES


@<TRIPOS>ATOM
  1 O       -0.6160     0.8600     1.1620 O.2   1 <1>  -0.5750 
  2 C       -1.2590     0.6960     0.1510 C.2   1 <1>   0.6110 
  3 N       -0.6540     1.0030    -1.0130 N.am  1 <1>  -0.8040 
  4 C       -2.6030     0.2310     0.2310 C.2   1 <1>  -0.1320 
  5 C       -3.2330    -0.6940    -0.5380 C.2   1 <1>   0.1560 
  6 C       -3.3500     0.9380     1.3590 C.3   1 <1>   0.7120 
  7 N       -4.5560    -1.0240    -0.2970 N.pl3 1 <1>  -0.6940 
  8 C       -2.6070    -1.4730    -1.6840 C.3   1 <1>  -0.1110 
  9 N       -4.6740     0.3140     1.6070 N.pl3 1 <1>  -0.4630 
 10 C       -3.5910     2.3930     0.9610 C.ar  1 <1>  -0.1520 
 11 C       -5.2070    -0.5440     0.7730 C.cat 1 <1>   1.0680 
 12 N       -5.5460     0.6170     2.6160 N.2   1 <1>  -0.2680 
 13 C       -4.3120     2.7040    -0.1840 C.ar  1 <1>  -0.1580 
 14 C       -3.0900     3.4290     1.7320 C.ar  1 <1>  -0.1580 
 15 N       -6.4160    -0.8200     1.1950 N.pl3 1 <1>  -0.7040 
 16 C       -6.5860    -0.0790     2.3350 C.2   1 <1>   0.4970 
 17 C       -4.5470     4.0120    -0.5680 C.ar  1 <1>   0.0740 
 18 C       -3.3120     4.7450     1.3660 C.ar  1 <1>  -0.1580 
 19 O       -5.2760     4.1130    -1.7180 O.3   1 <1>  -0.3690 
 20 C       -4.0400     5.0610     0.2200 C.ar  1 <1>   0.0740 
 21 C       -5.6300     5.3440    -2.3070 C.3   1 <1>   0.0310 
 22 O       -4.2590     6.3600    -0.1350 O.3   1 <1>  -0.3690 
 23 C       -3.7800     7.4480     0.6200 C.3   1 <1>   0.1110 
 24 C       -4.2180     8.7330    -0.0750 C.3   1 <1>  -0.2480 
 25 H        0.2890     1.3990    -0.9690 H     1 <1>   0.3630 
 26 H       -1.1530     1.1790    -1.8850 H     1 <1>   0.3630 
 27 H       -2.7850     0.8910     2.2750 H     1 <1>   0.0710 
 28 H       -5.0290    -1.6940    -0.9060 H     1 <1>   0.4440 
 29 H       -3.0240    -1.1530    -2.6220 H     1 <1>   0.0710 
 30 H       -2.7930    -2.5260    -1.5630 H     1 <1>   0.0710 
 31 H       -1.5410    -1.3420    -1.7230 H     1 <1>   0.0710 
 32 H       -4.7120     1.9340    -0.8150 H     1 <1>   0.1420 
 33 H       -2.5180     3.2280     2.6230 H     1 <1>   0.1420 
 34 H       -7.1000    -1.4410     0.7720 H     1 <1>   0.4440 
 35 H       -7.4960    -0.0910     2.9180 H     1 <1>   0.1420 
 36 H       -2.9020     5.5120     1.9960 H     1 <1>   0.1420 
 37 H       -6.1930     5.1410    -3.2000 H     1 <1>   0.0710 
 38 H       -4.7330     5.8830    -2.5550 H     1 <1>   0.0710 
 39 H       -6.2330     5.9030    -1.6140 H     1 <1>   0.0710 
 40 H       -2.7060     7.3880     0.6640 H     1 <1>   0.0710 
 41 H       -4.2010     7.3890     1.6090 H     1 <1>   0.0710 
 42 H       -3.8070     8.7750    -1.0680 H     1 <1>   0.0710 
 43 H       -3.8670     9.5850     0.4780 H     1 <1>   0.0710 
 44 H       -5.2910     8.7760    -0.1280 H     1 <1>   0.0710 
@<TRIPOS>BOND
  1   1   2  2   
  2   2   3  am  
  3   2   4  1   
  4   3  25  1   
  5   3  26  1   
  6   4   5  2   
  7   4   6  1   
  8   5   7  1   
  9   5   8  1   
 10   6   9  1   
 11   6  10  1   
 12   6  27  1   
 13   7  11  ar  
 14   7  28  1   
 15   8  29  1   
 16   8  30  1   
 17   8  31  1   
 18   9  11  ar  
 19   9  12  1   
 20  10  13  ar  
 21  10  14  ar  
 22  11  15  ar  
 23  12  16  2   
 24  13  17  ar  
 25  13  32  1   
 26  14  18  ar  
 27  14  33  1   
 28  15  16  1   
 29  15  34  1   
 30  16  35  1   
 31  17  19  1   
 32  17  20  ar  
 33  18  20  ar  
 34  18  36  1   
 35  19  21  1   
 36  20  22  1   
 37  21  37  1   
 38  21  38  1   
 39  21  39  1   
 40  22  23  1   
 41  23  24  1   
 42  23  40  1   
 43  23  41  1   
 44  24  42  1   
 45  24  43  1   
 46  24  44  1   
@<TRIPOS>SUBSTRUCTURE
  1 ****  10 GROUP 4 **** **** 0

# MOE 2024.06 (io_trps.svl 2023.06)
