@<TRIPOS>MOLECULE
2-Oxo-1-oxa-spiro[4.4]nonane-4-carboxylic acid m-tolylamide
39 41 1 0 0 
SMALL
USER_CHARGES


@<TRIPOS>ATOM
  1 O       -1.9280     0.5190     3.7930 O.2   1 <1>  -0.5700 
  2 C       -2.7600     0.7770     2.9680 C.2   1 <1>   0.6590 
  3 O       -2.6090     0.6110     1.6810 O.3   1 <1>  -0.4300 
  4 C       -4.0770     1.3590     3.2280 C.3   1 <1>  -0.0990 
  5 C       -3.6810     0.8520     0.7630 C.3   1 <1>   0.2800 
  6 C       -4.4170     1.8040     1.8090 C.3   1 <1>  -0.0190 
  7 C       -4.7950     1.1660    -0.3290 C.3   1 <1>  -0.1600 
  8 C       -2.9680    -0.1690    -0.2020 C.3   1 <1>  -0.1600 
  9 C       -4.1310     3.3090     1.6770 C.2   1 <1>   0.5690 
 10 C       -4.4530     0.7140    -1.7390 C.3   1 <1>  -0.1600 
 11 C       -3.7350    -0.5550    -1.4550 C.3   1 <1>  -0.1600 
 12 O       -4.9700     4.0510     2.1180 O.2   1 <1>  -0.5700 
 13 N       -3.0240     3.8740     1.1210 N.am  1 <1>  -0.5470 
 14 C       -1.9300     3.3500     0.4320 C.ar  1 <1>   0.1170 
 15 C       -1.9550     3.2780    -0.9540 C.ar  1 <1>  -0.1500 
 16 C       -0.8000     2.9180     1.1110 C.ar  1 <1>  -0.1500 
 17 C       -0.8810     2.7620    -1.6580 C.ar  1 <1>  -0.1440 
 18 C        0.2770     2.4010     0.4150 C.ar  1 <1>  -0.1500 
 19 C        0.2360     2.3220    -0.9660 C.ar  1 <1>  -0.1500 
 20 C       -0.9190     2.6680    -3.1730 C.3   1 <1>  -0.0970 
 21 H       -4.0230     2.1660     3.9370 H     1 <1>   0.0800 
 22 H       -4.7400     0.5880     3.5750 H     1 <1>   0.0800 
 23 H       -5.4920     1.7150     1.7800 H     1 <1>   0.0800 
 24 H       -5.0490     2.2090    -0.4260 H     1 <1>   0.0800 
 25 H       -5.6950     0.6340    -0.0610 H     1 <1>   0.0800 
 26 H       -2.7310    -1.0980     0.2970 H     1 <1>   0.0800 
 27 H       -2.0400     0.2720    -0.5310 H     1 <1>   0.0800 
 28 H       -3.7910     1.4180    -2.2130 H     1 <1>   0.0800 
 29 H       -5.3260     0.5640    -2.3510 H     1 <1>   0.0800 
 30 H       -4.4360    -1.3440    -1.2380 H     1 <1>   0.0800 
 31 H       -3.0860    -0.8520    -2.2600 H     1 <1>   0.0800 
 32 H       -3.0540     4.8930     1.1680 H     1 <1>   0.3700 
 33 H       -2.8260     3.6270    -1.4770 H     1 <1>   0.1500 
 34 H       -0.7670     2.9750     2.1840 H     1 <1>   0.1500 
 35 H        1.1460     2.0570     0.9500 H     1 <1>   0.1500 
 36 H        1.0780     1.9140    -1.4990 H     1 <1>   0.1500 
 37 H       -1.6950     3.2940    -3.5750 H     1 <1>   0.0800 
 38 H       -1.1050     1.6520    -3.4680 H     1 <1>   0.0800 
 39 H        0.0210     2.9850    -3.5870 H     1 <1>   0.0800 
@<TRIPOS>BOND
  1   1   2  2   
  2   2   3  1   
  3   2   4  1   
  4   3   5  1   
  5   4   6  1   
  6   4  21  1   
  7   4  22  1   
  8   5   6  1   
  9   5   7  1   
 10   5   8  1   
 11   6   9  1   
 12   6  23  1   
 13   7  10  1   
 14   7  24  1   
 15   7  25  1   
 16   8  11  1   
 17   8  26  1   
 18   8  27  1   
 19   9  12  2   
 20   9  13  am  
 21  10  11  1   
 22  10  28  1   
 23  10  29  1   
 24  11  30  1   
 25  11  31  1   
 26  13  14  1   
 27  13  32  1   
 28  14  15  ar  
 29  14  16  ar  
 30  15  17  ar  
 31  15  33  1   
 32  16  18  ar  
 33  16  34  1   
 34  17  19  ar  
 35  17  20  1   
 36  18  19  ar  
 37  18  35  1   
 38  19  36  1   
 39  20  37  1   
 40  20  38  1   
 41  20  39  1   
@<TRIPOS>SUBSTRUCTURE
  1 ****   5 GROUP 4 **** **** 0

# MOE 2024.06 (io_trps.svl 2023.06)
