@<TRIPOS>MOLECULE
N-(4-Chloro-1-ethyl-7-methyl-2-oxo-2,3-dihydro-1H-indol-3-yl)-acetamide
33 34 1 0 0 
SMALL
USER_CHARGES


@<TRIPOS>ATOM
  1 CL       1.6410    -0.3370     1.8080 Cl    1 <1>  -0.1770 
  2 C        0.9720    -1.7170     0.9760 C.ar  1 <1>   0.1770 
  3 C        1.7980    -2.6940     0.4630 C.ar  1 <1>  -0.1440 
  4 C       -0.3980    -1.8260     0.8390 C.ar  1 <1>  -0.1500 
  5 C        1.2800    -3.8150    -0.1670 C.ar  1 <1>   0.1170 
  6 C        3.3100    -2.7410     0.4880 C.3   1 <1>   0.4250 
  7 C       -0.9280    -2.9260     0.1830 C.ar  1 <1>  -0.1500 
  8 N        2.3400    -4.6660    -0.5280 N.am  1 <1>  -0.4770 
  9 C       -0.1080    -3.9260    -0.3290 C.ar  1 <1>  -0.1440 
 10 N        3.8510    -1.6110    -0.3140 N.am  1 <1>  -0.7300 
 11 C        3.5350    -4.1170    -0.1450 C.2   1 <1>   0.5690 
 12 C        2.2770    -6.0490    -1.0610 C.3   1 <1>   0.1400 
 13 C       -0.7830    -5.0820    -1.0540 C.3   1 <1>  -0.0960 
 14 C        5.0990    -1.1060    -0.3000 C.2   1 <1>   0.5690 
 15 O        4.6210    -4.6460    -0.2420 O.2   1 <1>  -0.5700 
 16 C        2.1160    -7.0390     0.0920 C.3   1 <1>  -0.2400 
 17 O        5.3890    -0.2070    -1.0440 O.2   1 <1>  -0.5700 
 18 C        6.1470    -1.6480     0.6410 C.3   1 <1>  -0.1790 
 19 H       -1.0380    -1.0600     1.2390 H     1 <1>   0.1500 
 20 H        3.6850    -2.7220     1.4950 H     1 <1>   0.0800 
 21 H       -1.9970    -2.9930     0.0750 H     1 <1>   0.1500 
 22 H        3.2100    -1.2120    -1.0010 H     1 <1>   0.3700 
 23 H        3.1910    -6.2650    -1.5880 H     1 <1>   0.0800 
 24 H        1.4750    -6.1420    -1.7660 H     1 <1>   0.0800 
 25 H       -1.8510    -4.9610    -1.0660 H     1 <1>   0.0800 
 26 H       -0.4470    -5.1200    -2.0750 H     1 <1>   0.0800 
 27 H       -0.5650    -6.0120    -0.5660 H     1 <1>   0.0800 
 28 H        2.9820    -7.0020     0.7300 H     1 <1>   0.0800 
 29 H        2.0280    -8.0370    -0.2980 H     1 <1>   0.0800 
 30 H        1.2400    -6.8160     0.6730 H     1 <1>   0.0800 
 31 H        5.8190    -1.5440     1.6570 H     1 <1>   0.0800 
 32 H        7.0610    -1.0990     0.5140 H     1 <1>   0.0800 
 33 H        6.3360    -2.6830     0.4220 H     1 <1>   0.0800 
@<TRIPOS>BOND
  1   1   2  1   
  2   2   3  ar  
  3   2   4  ar  
  4   3   5  ar  
  5   3   6  1   
  6   4   7  ar  
  7   4  19  1   
  8   5   8  1   
  9   5   9  ar  
 10   6  10  1   
 11   6  11  1   
 12   6  20  1   
 13   7   9  ar  
 14   7  21  1   
 15   8  11  am  
 16   8  12  1   
 17   9  13  1   
 18  10  14  am  
 19  10  22  1   
 20  11  15  2   
 21  12  16  1   
 22  12  23  1   
 23  12  24  1   
 24  13  25  1   
 25  13  26  1   
 26  13  27  1   
 27  14  17  2   
 28  14  18  1   
 29  16  28  1   
 30  16  29  1   
 31  16  30  1   
 32  18  31  1   
 33  18  32  1   
 34  18  33  1   
@<TRIPOS>SUBSTRUCTURE
  1 ****   3 GROUP 4 **** **** 0

# MOE 2024.06 (io_trps.svl 2023.06)
