@<TRIPOS>MOLECULE
NONAME
34 38 1 0 0 
SMALL
USER_CHARGES


@<TRIPOS>ATOM
  1 O       -0.0810     0.5230    -1.4500 O.2   1 <1>  -0.5700 
  2 C       -0.4380    -0.4080    -0.7770 C.2   1 <1>   0.5690 
  3 N        0.3280    -1.1970     0.0680 N.am  1 <1>  -0.2370 
  4 C       -1.8430    -0.9350    -0.7350 C.3   1 <1>  -0.0190 
  5 C        1.7430    -1.2310     0.1050 C.ar  1 <1>   0.1170 
  6 C       -0.5250    -1.9400     0.8730 C.2   1 <1>   0.5690 
  7 C       -3.2330    -0.3940    -1.1600 C.3   1 <1>   0.1530 
  8 C       -1.8990    -1.3480     0.7420 C.3   1 <1>  -0.0190 
  9 C        2.5080    -0.0650     0.0340 C.ar  1 <1>   0.1600 
 10 C        2.4230    -2.4330     0.2150 C.ar  1 <1>  -0.1500 
 11 O       -0.2560    -2.8700     1.5880 O.2   1 <1>  -0.5700 
 12 C       -3.9940    -1.7250    -1.2590 C.2   1 <1>  -0.2880 
 13 C       -3.9040     0.3760     0.0210 C.3   1 <1>  -0.1950 
 14 C       -3.3350    -1.8390     1.0910 C.3   1 <1>   0.1530 
 15 N        3.8310    -0.0060     0.0730 N.ar  1 <1>  -0.6200 
 16 C        3.8000    -2.3940     0.2530 C.ar  1 <1>  -0.1500 
 17 C       -4.0010    -2.4690    -0.1410 C.2   1 <1>  -0.2880 
 18 C       -4.0770    -0.4750     1.2710 C.3   1 <1>  -0.1950 
 19 C       -5.2770     0.0880     0.5530 C.3   1 <1>  -0.2000 
 20 C        4.4470    -1.1720     0.1800 C.ar  1 <1>   0.1600 
 21 H       -1.7150    -1.8260    -1.3310 H     1 <1>   0.0800 
 22 H       -3.2230     0.1460    -2.0920 H     1 <1>   0.0800 
 23 H       -1.7630    -0.4630     1.3440 H     1 <1>   0.0800 
 24 H        1.9960     0.8770    -0.0580 H     1 <1>   0.1500 
 25 H        1.8990    -3.3720     0.2730 H     1 <1>   0.1500 
 26 H       -4.4400    -1.9670    -2.2090 H     1 <1>   0.1500 
 27 H       -3.5090     1.3690     0.1500 H     1 <1>   0.1000 
 28 H       -3.3820    -2.4530     1.9740 H     1 <1>   0.0800 
 29 H        4.3710    -3.3000     0.3400 H     1 <1>   0.1500 
 30 H       -4.4530    -3.4370    -0.0070 H     1 <1>   0.1500 
 31 H       -3.8690    -0.0260     2.2270 H     1 <1>   0.1000 
 32 H       -5.9430    -0.5800     0.0340 H     1 <1>   0.1000 
 33 H       -5.8180     0.8920     1.0200 H     1 <1>   0.1000 
 34 H        5.5240    -1.1520     0.2130 H     1 <1>   0.1500 
@<TRIPOS>BOND
  1   1   2  2   
  2   2   3  am  
  3   2   4  1   
  4   3   5  1   
  5   3   6  am  
  6   4   7  1   
  7   4   8  1   
  8   4  21  1   
  9   5   9  ar  
 10   5  10  ar  
 11   6   8  1   
 12   6  11  2   
 13   7  12  1   
 14   7  13  1   
 15   7  22  1   
 16   8  14  1   
 17   8  23  1   
 18   9  15  ar  
 19   9  24  1   
 20  10  16  ar  
 21  10  25  1   
 22  12  17  2   
 23  12  26  1   
 24  13  18  1   
 25  13  19  1   
 26  13  27  1   
 27  14  17  1   
 28  14  18  1   
 29  14  28  1   
 30  15  20  ar  
 31  16  20  ar  
 32  16  29  1   
 33  17  30  1   
 34  18  19  1   
 35  18  31  1   
 36  19  32  1   
 37  19  33  1   
 38  20  34  1   
@<TRIPOS>SUBSTRUCTURE
  1 ****   3 GROUP 4 **** **** 0

# MOE 2024.06 (io_trps.svl 2023.06)
