@<TRIPOS>MOLECULE
N-Isopropyl-4-[3-(3-methoxy-phenyl)-[1,2,4]oxadiazol-5-yl]-butyramide
43 44 1 0 0 
SMALL
USER_CHARGES


@<TRIPOS>ATOM
  1 O       -0.4840    -2.2450    -0.6450 O.2   1 <1>  -0.5700 
  2 C       -1.6490    -2.4810    -0.4480 C.2   1 <1>   0.5690 
  3 N       -2.3380    -3.2490    -1.3240 N.am  1 <1>  -0.7300 
  4 C       -2.3080    -1.9050     0.7930 C.3   1 <1>  -0.0990 
  5 C       -3.7630    -3.6050    -1.3280 C.3   1 <1>   0.2200 
  6 C       -2.9800    -0.5470     0.5090 C.3   1 <1>  -0.1600 
  7 C       -3.9100    -5.0290    -0.8050 C.3   1 <1>  -0.2400 
  8 C       -4.2820    -3.4840    -2.7550 C.3   1 <1>  -0.2400 
  9 C       -3.8160    -0.0370     1.7000 C.3   1 <1>   0.0200 
 10 C       -5.0400    -0.8920     2.0010 C.2   1 <1>   0.2980 
 11 O       -5.6020    -0.7850     3.1760 O.3   1 <1>  -0.0190 
 12 N       -5.5890    -1.7210     1.2140 N.2   1 <1>  -0.5650 
 13 N       -6.5830    -1.6320     3.1370 N.2   1 <1>  -0.4100 
 14 C       -6.5760    -2.1910     1.9790 C.2   1 <1>   0.4620 
 15 C       -7.4860    -3.2250     1.5150 C.ar  1 <1>   0.0540 
 16 C       -7.4440    -3.6970     0.2030 C.ar  1 <1>  -0.1500 
 17 C       -8.4340    -3.7970     2.3660 C.ar  1 <1>  -0.1500 
 18 C       -8.2860    -4.6980    -0.2450 C.ar  1 <1>   0.0820 
 19 C       -9.2870    -4.7950     1.9310 C.ar  1 <1>  -0.1500 
 20 O       -8.1400    -5.0820    -1.5380 O.3   1 <1>  -0.3620 
 21 C       -9.2170    -5.2510     0.6270 C.ar  1 <1>  -0.1500 
 22 C       -8.9780    -6.0620    -2.1090 C.3   1 <1>   0.0400 
 23 H       -1.7960    -3.6150    -2.1060 H     1 <1>   0.3700 
 24 H       -1.5530    -1.7780     1.5470 H     1 <1>   0.0800 
 25 H       -3.0160    -2.6180     1.1700 H     1 <1>   0.0800 
 26 H       -4.3150    -2.9310    -0.6980 H     1 <1>   0.0800 
 27 H       -3.6140    -0.6290    -0.3570 H     1 <1>   0.0800 
 28 H       -2.2140     0.1730     0.2780 H     1 <1>   0.0800 
 29 H       -3.3640    -5.7200    -1.4220 H     1 <1>   0.0800 
 30 H       -4.9470    -5.3140    -0.8070 H     1 <1>   0.0800 
 31 H       -3.5470    -5.0900     0.2050 H     1 <1>   0.0800 
 32 H       -3.7550    -4.1530    -3.4120 H     1 <1>   0.0800 
 33 H       -4.1650    -2.4730    -3.1040 H     1 <1>   0.0800 
 34 H       -5.3280    -3.7310    -2.7840 H     1 <1>   0.0800 
 35 H       -4.1530     0.9620     1.4920 H     1 <1>   0.0800 
 36 H       -3.1950     0.0020     2.5770 H     1 <1>   0.0800 
 37 H       -6.7410    -3.2790    -0.4920 H     1 <1>   0.1500 
 38 H       -8.5010    -3.4550     3.3850 H     1 <1>   0.1500 
 39 H      -10.0070    -5.2180     2.6100 H     1 <1>   0.1500 
 40 H       -9.8870    -6.0280     0.3140 H     1 <1>   0.1500 
 41 H       -8.6930    -6.1880    -3.1380 H     1 <1>   0.0800 
 42 H       -9.9980    -5.7250    -2.0530 H     1 <1>   0.0800 
 43 H       -8.8470    -6.9870    -1.5770 H     1 <1>   0.0800 
@<TRIPOS>BOND
  1   1   2  2   
  2   2   3  am  
  3   2   4  1   
  4   3   5  1   
  5   3  23  1   
  6   4   6  1   
  7   4  24  1   
  8   4  25  1   
  9   5   7  1   
 10   5   8  1   
 11   5  26  1   
 12   6   9  1   
 13   6  27  1   
 14   6  28  1   
 15   7  29  1   
 16   7  30  1   
 17   7  31  1   
 18   8  32  1   
 19   8  33  1   
 20   8  34  1   
 21   9  10  1   
 22   9  35  1   
 23   9  36  1   
 24  10  11  1   
 25  10  12  2   
 26  11  13  1   
 27  12  14  1   
 28  13  14  2   
 29  14  15  1   
 30  15  16  ar  
 31  15  17  ar  
 32  16  18  ar  
 33  16  37  1   
 34  17  19  ar  
 35  17  38  1   
 36  18  20  1   
 37  18  21  ar  
 38  19  21  ar  
 39  19  39  1   
 40  20  22  1   
 41  21  40  1   
 42  22  41  1   
 43  22  42  1   
 44  22  43  1   
@<TRIPOS>SUBSTRUCTURE
  1 ****  12 GROUP 4 **** **** 0

# MOE 2024.06 (io_trps.svl 2023.06)
