@<TRIPOS>MOLECULE
3,6-Dihydroxy-4-(4-hydroxy-3-methoxy-phenyl)-6-methyl-4,5,6,7-tetrahydro-1H-inda
55 58 1 0 0 
SMALL
USER_CHARGES


@<TRIPOS>ATOM
  1 O       -0.8070     0.6860     1.2840 O.2   1 <1>  -0.5700 
  2 C       -0.0540     1.2510     0.5310 C.2   1 <1>   0.6590 
  3 O       -0.2340     1.2460    -0.7830 O.3   1 <1>  -0.4300 
  4 C        1.1190     2.0420     1.0680 C.3   1 <1>  -0.0190 
  5 C       -1.4350     0.7890    -1.3560 C.3   1 <1>   0.2640 
  6 C        0.8360     3.5680     1.1190 C.3   1 <1>   0.2800 
  7 C        2.4120     1.7080     0.2960 C.3   1 <1>   0.2440 
  8 C       -2.4710     1.8940    -1.2210 C.ar  1 <1>  -0.1440 
  9 O        0.7710     4.0410    -0.1770 O.3   1 <1>  -0.6800 
 10 C        1.9840     4.3190     1.8450 C.3   1 <1>   0.0200 
 11 C       -0.5150     3.9160     1.7560 C.3   1 <1>  -0.2400 
 12 C        2.7720     0.2270     0.4140 C.ar  1 <1>  -0.1430 
 13 C        3.5360     2.5900     0.8100 C.2   1 <1>  -0.1810 
 14 C       -2.4000     3.0180    -2.0290 C.ar  1 <1>  -0.1500 
 15 C       -3.4840     1.7980    -0.2780 C.ar  1 <1>  -0.1500 
 16 C        3.3430     3.7420     1.4810 C.2   1 <1>  -0.3320 
 17 C        2.6180    -0.6110    -0.6790 C.ar  1 <1>  -0.1500 
 18 C        3.2600    -0.3000     1.6010 C.ar  1 <1>  -0.1500 
 19 C        4.9170     2.4740     0.7240 C.2   1 <1>   0.3510 
 20 C       -3.3360     4.0310    -1.9040 C.ar  1 <1>  -0.1500 
 21 C       -4.4190     2.8100    -0.1510 C.ar  1 <1>  -0.1500 
 22 N        4.5680     4.2480     1.7540 N.pl3 1 <1>   0.3000 
 23 C        2.9390    -1.9580    -0.6160 C.ar  1 <1>   0.0830 
 24 C        3.5880    -1.6400     1.6880 C.ar  1 <1>  -0.1500 
 25 O        5.5610     1.4460     0.1460 O.3   1 <1>  -0.5120 
 26 N        5.5510     3.4490     1.2850 N.2   1 <1>  -0.7070 
 27 C       -4.3470     3.9260    -0.9650 C.ar  1 <1>  -0.1500 
 28 O        2.7280    -2.6370    -1.7820 O.3   1 <1>  -0.3630 
 29 C        3.4340    -2.4760     0.5930 C.ar  1 <1>   0.0830 
 30 C        3.0080    -4.0100    -1.9360 C.3   1 <1>   0.0400 
 31 O        3.7810    -3.7690     0.7690 O.3   1 <1>  -0.5330 
 32 H        1.2590     1.7190     2.0830 H     1 <1>   0.0800 
 33 H       -1.7440    -0.1170    -0.8640 H     1 <1>   0.0800 
 34 H       -1.2440     0.5770    -2.3930 H     1 <1>   0.0800 
 35 H        2.2760     1.9540    -0.7440 H     1 <1>   0.0800 
 36 H        0.3330     4.9130    -0.1950 H     1 <1>   0.4000 
 37 H        1.8560     4.2120     2.9080 H     1 <1>   0.0800 
 38 H        1.9440     5.3690     1.6120 H     1 <1>   0.0800 
 39 H       -0.5790     3.4860     2.7400 H     1 <1>   0.0800 
 40 H       -1.3320     3.5290     1.1710 H     1 <1>   0.0800 
 41 H       -0.6320     4.9800     1.8490 H     1 <1>   0.0800 
 42 H       -1.6100     3.1090    -2.7550 H     1 <1>   0.1500 
 43 H       -3.5410     0.9360     0.3660 H     1 <1>   0.1500 
 44 H        2.2370    -0.2270    -1.6090 H     1 <1>   0.1500 
 45 H        3.3920     0.3330     2.4640 H     1 <1>   0.1500 
 46 H       -3.2770     4.8990    -2.5370 H     1 <1>   0.1500 
 47 H       -5.2020     2.7270     0.5830 H     1 <1>   0.1500 
 48 H        4.7740     5.1230     2.2500 H     1 <1>   0.2700 
 49 H        3.9660    -2.0240     2.6170 H     1 <1>   0.1500 
 50 H        4.9350     0.7150     0.0020 H     1 <1>   0.4500 
 51 H       -5.0760     4.7120    -0.8670 H     1 <1>   0.1500 
 52 H        2.7620    -4.2910    -2.9430 H     1 <1>   0.0800 
 53 H        2.4050    -4.5680    -1.2420 H     1 <1>   0.0800 
 54 H        4.0550    -4.1740    -1.7540 H     1 <1>   0.0800 
 55 H        4.0990    -3.9550     1.6700 H     1 <1>   0.4500 
@<TRIPOS>BOND
  1   1   2  2   
  2   2   3  1   
  3   2   4  1   
  4   3   5  1   
  5   4   6  1   
  6   4   7  1   
  7   4  32  1   
  8   5   8  1   
  9   5  33  1   
 10   5  34  1   
 11   6   9  1   
 12   6  10  1   
 13   6  11  1   
 14   7  12  1   
 15   7  13  1   
 16   7  35  1   
 17   8  14  ar  
 18   8  15  ar  
 19   9  36  1   
 20  10  16  1   
 21  10  37  1   
 22  10  38  1   
 23  11  39  1   
 24  11  40  1   
 25  11  41  1   
 26  12  17  ar  
 27  12  18  ar  
 28  13  16  2   
 29  13  19  1   
 30  14  20  ar  
 31  14  42  1   
 32  15  21  ar  
 33  15  43  1   
 34  16  22  1   
 35  17  23  ar  
 36  17  44  1   
 37  18  24  ar  
 38  18  45  1   
 39  19  25  1   
 40  19  26  2   
 41  20  27  ar  
 42  20  46  1   
 43  21  27  ar  
 44  21  47  1   
 45  22  26  1   
 46  22  48  1   
 47  23  28  1   
 48  23  29  ar  
 49  24  29  ar  
 50  24  49  1   
 51  25  50  1   
 52  27  51  1   
 53  28  30  1   
 54  29  31  1   
 55  30  52  1   
 56  30  53  1   
 57  30  54  1   
 58  31  55  1   
@<TRIPOS>SUBSTRUCTURE
  1 ****   4 GROUP 4 **** **** 0

# MOE 2024.06 (io_trps.svl 2023.06)
