@<TRIPOS>MOLECULE
N-[2-(4-Ethyl-piperazin-1-yl)-2-oxo-ethyl]-4,N-dimethyl-benzenesulfonamide
49 50 1 0 0 
SMALL
USER_CHARGES


@<TRIPOS>ATOM
  1 S        1.2970     0.0580     0.1240 S.o2  1 <1>   1.4470 
  2 O        2.6940     0.1810     0.4770 O.2   1 <1>  -0.6500 
  3 O        0.9630    -0.7650    -1.0220 O.2   1 <1>  -0.6500 
  4 N        0.4780    -0.6510     1.4330 N.am  1 <1>  -0.8490 
  5 C        0.5770     1.7150    -0.0350 C.ar  1 <1>  -0.0090 
  6 C        0.8580    -2.0750     1.6470 C.3   1 <1>   0.2570 
  7 C       -0.9840    -0.5630     1.3080 C.3   1 <1>   0.1160 
  8 C       -0.1430     2.0870    -1.1650 C.ar  1 <1>  -0.1500 
  9 C        0.7180     2.6510     0.9820 C.ar  1 <1>  -0.1500 
 10 C        2.3160    -2.3570     2.0640 C.2   1 <1>   0.5690 
 11 C       -0.7050     3.3470    -1.2740 C.ar  1 <1>  -0.1500 
 12 C        0.1590     3.9130     0.8790 C.ar  1 <1>  -0.1500 
 13 O        2.5550    -2.3560     3.2490 O.2   1 <1>  -0.5700 
 14 N        3.3210    -2.6400     1.1600 N.am  1 <1>  -0.6600 
 15 C       -0.5580     4.2670    -0.2500 C.ar  1 <1>  -0.1430 
 16 C        4.7390    -2.3830     1.5670 C.3   1 <1>   0.1400 
 17 C        3.1320    -2.8670    -0.3090 C.3   1 <1>   0.1400 
 18 C       -1.1700     5.6510    -0.3670 C.3   1 <1>  -0.0970 
 19 C        5.7020    -3.4300     0.9840 C.3   1 <1>   0.3430 
 20 C        4.1290    -3.9040    -0.8600 C.3   1 <1>   0.3430 
 21 N        5.5520    -3.5600    -0.5080 N.4   1 <1>  -0.9590 
 22 C        6.5310    -4.5360    -1.0520 C.3   1 <1>   0.3430 
 23 C        6.6300    -4.3770    -2.5640 C.3   1 <1>  -0.2400 
 24 H        0.6100    -2.6480     0.7740 H     1 <1>   0.0800 
 25 H        0.2520    -2.4620     2.4480 H     1 <1>   0.0800 
 26 H       -1.2980     0.4670     1.2750 H     1 <1>   0.0800 
 27 H       -1.4570    -1.0170     2.1630 H     1 <1>   0.0800 
 28 H       -1.3210    -1.0600     0.4130 H     1 <1>   0.0800 
 29 H       -0.2670     1.3850    -1.9720 H     1 <1>   0.1500 
 30 H        1.2740     2.3870     1.8660 H     1 <1>   0.1500 
 31 H       -1.2550     3.6100    -2.1610 H     1 <1>   0.1500 
 32 H        0.2870     4.6170     1.6830 H     1 <1>   0.1500 
 33 H        4.8340    -2.3940     2.6400 H     1 <1>   0.0800 
 34 H        5.0230    -1.4000     1.2330 H     1 <1>   0.0800 
 35 H        3.2780    -1.9400    -0.8340 H     1 <1>   0.0800 
 36 H        2.1350    -3.2100    -0.5170 H     1 <1>   0.0800 
 37 H       -2.0590     5.6210    -0.9720 H     1 <1>   0.0800 
 38 H       -0.4640     6.3230    -0.8210 H     1 <1>   0.0800 
 39 H       -1.4350     6.0300     0.6040 H     1 <1>   0.0800 
 40 H        5.5000    -4.3780     1.4550 H     1 <1>   0.0800 
 41 H        6.7120    -3.1470     1.2290 H     1 <1>   0.0800 
 42 H        4.0160    -3.9540    -1.9300 H     1 <1>   0.0800 
 43 H        3.8790    -4.8700    -0.4550 H     1 <1>   0.0800 
 44 H        5.7560    -2.6360    -0.9150 H     1 <1>   0.4500 
 45 H        6.2340    -5.5430    -0.8020 H     1 <1>   0.0800 
 46 H        7.5020    -4.3540    -0.6200 H     1 <1>   0.0800 
 47 H        5.7100    -4.6440    -3.0520 H     1 <1>   0.0800 
 48 H        7.3970    -5.0350    -2.9360 H     1 <1>   0.0800 
 49 H        6.9040    -3.3710    -2.8280 H     1 <1>   0.0800 
@<TRIPOS>BOND
  1   1   2  2   
  2   1   3  2   
  3   1   4  am  
  4   1   5  1   
  5   4   6  1   
  6   4   7  1   
  7   5   8  ar  
  8   5   9  ar  
  9   6  10  1   
 10   6  24  1   
 11   6  25  1   
 12   7  26  1   
 13   7  27  1   
 14   7  28  1   
 15   8  11  ar  
 16   8  29  1   
 17   9  12  ar  
 18   9  30  1   
 19  10  13  2   
 20  10  14  am  
 21  11  15  ar  
 22  11  31  1   
 23  12  15  ar  
 24  12  32  1   
 25  14  16  1   
 26  14  17  1   
 27  15  18  1   
 28  16  19  1   
 29  16  33  1   
 30  16  34  1   
 31  17  20  1   
 32  17  35  1   
 33  17  36  1   
 34  18  37  1   
 35  18  38  1   
 36  18  39  1   
 37  19  21  1   
 38  19  40  1   
 39  19  41  1   
 40  20  21  1   
 41  20  42  1   
 42  20  43  1   
 43  21  22  1   
 44  21  44  1   
 45  22  23  1   
 46  22  45  1   
 47  22  46  1   
 48  23  47  1   
 49  23  48  1   
 50  23  49  1   
@<TRIPOS>SUBSTRUCTURE
  1 ****   2 GROUP 4 **** **** 0

# MOE 2024.06 (io_trps.svl 2023.06)
