@<TRIPOS>MOLECULE
N-(4-Fluoro-phenyl)-2-[4-(morpholine-4-carbonyl)-piperazin-1-yl]-acetamide
48 50 1 0 0 
SMALL
USER_CHARGES


@<TRIPOS>ATOM
  1 F       -0.5300     0.7590    -1.2310 F     1 <1>  -0.1900 
  2 C        0.1800     1.7850    -0.8400 C.ar  1 <1>   0.1900 
  3 C        1.0260     1.6370     0.2420 C.ar  1 <1>  -0.1500 
  4 C        0.0600     2.9790    -1.5220 C.ar  1 <1>  -0.1500 
  5 C        1.7750     2.7280     0.6500 C.ar  1 <1>  -0.1500 
  6 C        0.8170     4.0600    -1.1030 C.ar  1 <1>  -0.1500 
  7 C        1.6800     3.9500    -0.0120 C.ar  1 <1>   0.1170 
  8 N        2.4720     5.0190     0.4340 N.am  1 <1>  -0.5470 
  9 C        2.2930     6.3750     0.3160 C.2   1 <1>   0.5690 
 10 O        1.3090     6.8680    -0.1810 O.2   1 <1>  -0.5700 
 11 C        3.3670     7.3020     0.9050 C.3   1 <1>   0.1710 
 12 N        4.5800     7.5340     0.0690 N.3   1 <1>  -0.8100 
 13 C        5.3740     6.3150    -0.2060 C.3   1 <1>   0.1100 
 14 C        5.4270     8.5930     0.6640 C.3   1 <1>   0.1100 
 15 C        6.5920     6.6130    -1.0990 C.3   1 <1>   0.1400 
 16 C        6.6510     8.9230    -0.2070 C.3   1 <1>   0.1400 
 17 N        7.4310     7.6910    -0.5050 N.am  1 <1>  -0.6600 
 18 C        8.7960     7.7280    -0.6280 C.2   1 <1>   0.6900 
 19 O        9.3720     8.8000    -0.6940 O.2   1 <1>  -0.5700 
 20 N        9.5230     6.5680    -0.6600 N.am  1 <1>  -0.6600 
 21 C        9.3650     5.5530     0.4200 C.3   1 <1>   0.1400 
 22 C       10.8800     6.5500    -1.2800 C.3   1 <1>   0.1400 
 23 C       10.5470     5.6190     1.4030 C.3   1 <1>   0.1200 
 24 C       11.9700     6.5650    -0.1980 C.3   1 <1>   0.1200 
 25 O       11.7650     5.5270     0.7200 O.3   1 <1>  -0.5600 
 26 H        1.0900     0.6900     0.7480 H     1 <1>   0.1500 
 27 H       -0.6090     3.0600    -2.3600 H     1 <1>   0.1500 
 28 H        2.4330     2.6250     1.4930 H     1 <1>   0.1500 
 29 H        0.7340     4.9930    -1.6310 H     1 <1>   0.1500 
 30 H        3.3030     4.7450     0.9520 H     1 <1>   0.3700 
 31 H        3.6630     6.9180     1.8650 H     1 <1>   0.0800 
 32 H        2.8900     8.2510     1.0760 H     1 <1>   0.0800 
 33 H        4.7610     5.5960    -0.7210 H     1 <1>   0.0800 
 34 H        5.7140     5.8810     0.7180 H     1 <1>   0.0800 
 35 H        5.7680     8.2850     1.6380 H     1 <1>   0.0800 
 36 H        4.8430     9.4900     0.7830 H     1 <1>   0.0800 
 37 H        6.2450     6.9360    -2.0650 H     1 <1>   0.0800 
 38 H        7.1680     5.7160    -1.2400 H     1 <1>   0.0800 
 39 H        7.2710     9.6380     0.3060 H     1 <1>   0.0800 
 40 H        6.3240     9.3670    -1.1310 H     1 <1>   0.0800 
 41 H        9.3200     4.5720    -0.0190 H     1 <1>   0.0800 
 42 H        8.4510     5.7250     0.9590 H     1 <1>   0.0800 
 43 H       11.0030     7.4010    -1.9280 H     1 <1>   0.0800 
 44 H       10.9840     5.6620    -1.8780 H     1 <1>   0.0800 
 45 H       10.4990     4.8010     2.1000 H     1 <1>   0.0800 
 46 H       10.5300     6.5440     1.9520 H     1 <1>   0.0800 
 47 H       11.9620     7.5040     0.3300 H     1 <1>   0.0800 
 48 H       12.9390     6.4260    -0.6430 H     1 <1>   0.0800 
@<TRIPOS>BOND
  1   1   2  1   
  2   2   3  ar  
  3   2   4  ar  
  4   3   5  ar  
  5   3  26  1   
  6   4   6  ar  
  7   4  27  1   
  8   5   7  ar  
  9   5  28  1   
 10   6   7  ar  
 11   6  29  1   
 12   7   8  1   
 13   8   9  am  
 14   8  30  1   
 15   9  10  2   
 16   9  11  1   
 17  11  12  1   
 18  11  31  1   
 19  11  32  1   
 20  12  13  1   
 21  12  14  1   
 22  13  15  1   
 23  13  33  1   
 24  13  34  1   
 25  14  16  1   
 26  14  35  1   
 27  14  36  1   
 28  15  17  1   
 29  15  37  1   
 30  15  38  1   
 31  16  17  1   
 32  16  39  1   
 33  16  40  1   
 34  17  18  am  
 35  18  19  2   
 36  18  20  am  
 37  20  21  1   
 38  20  22  1   
 39  21  23  1   
 40  21  41  1   
 41  21  42  1   
 42  22  24  1   
 43  22  43  1   
 44  22  44  1   
 45  23  25  1   
 46  23  45  1   
 47  23  46  1   
 48  24  25  1   
 49  24  47  1   
 50  24  48  1   
@<TRIPOS>SUBSTRUCTURE
  1 ****  13 GROUP 4 **** **** 0

# MOE 2024.06 (io_trps.svl 2023.06)
