@<TRIPOS>MOLECULE
1-Benzyl-3,7-dimethyl-8-piperazin-1-yl-3,7-dihydro-purine-2,6-dione
50 53 1 0 0 
SMALL
USER_CHARGES


@<TRIPOS>ATOM
  1 O        0.6690     0.8280     2.9930 O.2   1 <1>  -0.5750 
  2 C        1.5000     1.2500     2.2150 C.2   1 <1>   0.6860 
  3 N        1.2400     2.3810     1.4580 N.am  1 <1>  -0.4260 
  4 N        2.7250     0.6040     2.0990 N.am  1 <1>  -0.4420 
  5 C        2.2140     2.9570     0.6610 C.2   1 <1>   0.6990 
  6 C       -0.1640     2.8510     1.3240 C.3   1 <1>   0.2770 
  7 C        3.6720     1.1590     1.2600 C.2   1 <1>   0.4200 
  8 C        2.9930    -0.6470     2.8690 C.3   1 <1>   0.0520 
  9 O        2.0120     4.0180     0.0930 O.2   1 <1>  -0.5750 
 10 C        3.4760     2.2850     0.5460 C.2   1 <1>   0.2700 
 11 C       -0.7870     2.1590     0.1230 C.ar  1 <1>  -0.1510 
 12 N        4.9330     0.7080     1.0190 N.pl3 1 <1>  -0.7040 
 13 N        4.6710     2.5180    -0.1740 N.pl3 1 <1>  -0.7670 
 14 C       -0.7880     2.7730    -1.1200 C.ar  1 <1>  -0.1580 
 15 C       -1.3530     0.9000     0.2610 C.ar  1 <1>  -0.1580 
 16 C        5.5320     1.5440     0.1670 C.cat 1 <1>   1.0690 
 17 C        4.7150     3.6050    -1.2000 C.3   1 <1>   0.2670 
 18 C       -1.3440     2.1340    -2.2150 C.ar  1 <1>  -0.1580 
 19 C       -1.9100     0.2610    -0.8330 C.ar  1 <1>  -0.1580 
 20 N        6.8270     1.3850    -0.2330 N.pl3 1 <1>  -0.5960 
 21 C       -1.9050     0.8780    -2.0720 C.ar  1 <1>  -0.1580 
 22 C        7.6580     2.5070    -0.8010 C.3   1 <1>   0.1600 
 23 C        7.5590     0.0790    -0.0430 C.3   1 <1>   0.1600 
 24 C        9.1660     2.3670    -0.4860 C.3   1 <1>   0.3370 
 25 C        8.7600    -0.0900    -1.0030 C.3   1 <1>   0.3370 
 26 N        9.7390     1.0480    -0.9250 N.4   1 <1>  -0.9080 
 27 H       -0.1890     3.9190     1.1920 H     1 <1>   0.0720 
 28 H       -0.7280     2.6260     2.2130 H     1 <1>   0.0720 
 29 H        2.0700    -1.1570     3.0920 H     1 <1>   0.0720 
 30 H        3.4810    -0.4050     3.7970 H     1 <1>   0.0720 
 31 H        3.6100    -1.3190     2.2990 H     1 <1>   0.0720 
 32 H        5.3440    -0.1030     1.4700 H     1 <1>   0.4440 
 33 H       -0.3570     3.7520    -1.2450 H     1 <1>   0.1420 
 34 H       -1.3640     0.4100     1.2200 H     1 <1>   0.1420 
 35 H        3.7650     3.6810    -1.7020 H     1 <1>   0.0720 
 36 H        5.4580     3.4050    -1.9500 H     1 <1>   0.0720 
 37 H        4.9240     4.5510    -0.7270 H     1 <1>   0.0720 
 38 H       -1.3440     2.6160    -3.1770 H     1 <1>   0.1420 
 39 H       -2.3500    -0.7140    -0.7200 H     1 <1>   0.1420 
 40 H       -2.3410     0.3820    -2.9220 H     1 <1>   0.1420 
 41 H        7.3200     3.4470    -0.3970 H     1 <1>   0.0720 
 42 H        7.5310     2.5390    -1.8700 H     1 <1>   0.0720 
 43 H        6.8810    -0.7420    -0.2080 H     1 <1>   0.0720 
 44 H        7.9140     0.0140     0.9720 H     1 <1>   0.0720 
 45 H        9.2970     2.4740     0.5790 H     1 <1>   0.0720 
 46 H        9.7090     3.1720    -0.9570 H     1 <1>   0.0720 
 47 H        8.3780    -0.1580    -2.0090 H     1 <1>   0.0720 
 48 H        9.2670    -1.0180    -0.7900 H     1 <1>   0.0720 
 49 H       10.5130     0.7960    -0.2900 H     1 <1>   0.4440 
 50 H       10.1880     1.1580    -1.8470 H     1 <1>   0.4440 
@<TRIPOS>BOND
  1   1   2  2   
  2   2   3  am  
  3   2   4  am  
  4   3   5  am  
  5   3   6  1   
  6   4   7  1   
  7   4   8  1   
  8   5   9  2   
  9   5  10  1   
 10   6  11  1   
 11   6  27  1   
 12   6  28  1   
 13   7  10  2   
 14   7  12  1   
 15   8  29  1   
 16   8  30  1   
 17   8  31  1   
 18  10  13  1   
 19  11  14  ar  
 20  11  15  ar  
 21  12  16  ar  
 22  12  32  1   
 23  13  16  ar  
 24  13  17  1   
 25  14  18  ar  
 26  14  33  1   
 27  15  19  ar  
 28  15  34  1   
 29  16  20  ar  
 30  17  35  1   
 31  17  36  1   
 32  17  37  1   
 33  18  21  ar  
 34  18  38  1   
 35  19  21  ar  
 36  19  39  1   
 37  20  22  1   
 38  20  23  1   
 39  21  40  1   
 40  22  24  1   
 41  22  41  1   
 42  22  42  1   
 43  23  25  1   
 44  23  43  1   
 45  23  44  1   
 46  24  26  1   
 47  24  45  1   
 48  24  46  1   
 49  25  26  1   
 50  25  47  1   
 51  25  48  1   
 52  26  49  1   
 53  26  50  1   
@<TRIPOS>SUBSTRUCTURE
  1 ****  10 GROUP 4 **** **** 0

# MOE 2024.06 (io_trps.svl 2023.06)
