@<TRIPOS>MOLECULE
7-(4-Chloro-benzyl)-8-(4-ethyl-piperazin-1-yl)-1,3-dimethyl-3,7-dihydro-purine-2
56 59 1 0 0 
SMALL
USER_CHARGES


@<TRIPOS>ATOM
  1 CL      -1.9020     2.2660     1.3500 Cl    1 <1>  -0.1830 
  2 C       -2.9640     1.1400     0.5480 C.ar  1 <1>   0.1710 
  3 C       -4.0920     0.6850     1.2030 C.ar  1 <1>  -0.1570 
  4 C       -2.6610     0.7170    -0.7310 C.ar  1 <1>  -0.1570 
  5 C       -4.9240    -0.2230     0.5700 C.ar  1 <1>  -0.1570 
  6 C       -3.4950    -0.1910    -1.3600 C.ar  1 <1>  -0.1570 
  7 C       -4.6230    -0.6810    -0.7090 C.ar  1 <1>  -0.1500 
  8 C       -5.5000    -1.7110    -1.4090 C.3   1 <1>   0.4930 
  9 N       -5.8950    -2.8140    -0.4800 N.pl3 1 <1>  -0.7670 
 10 C       -5.2530    -3.9460    -0.1650 C.cat 1 <1>   1.0690 
 11 C       -7.2100    -2.9230     0.0260 C.2   1 <1>   0.2710 
 12 N       -6.0950    -4.7690     0.4610 N.pl3 1 <1>  -0.7030 
 13 N       -3.9550    -4.2750    -0.4020 N.pl3 1 <1>  -0.5960 
 14 C       -8.3640    -2.0720     0.0600 C.2   1 <1>   0.7000 
 15 C       -7.2960    -4.1430     0.5930 C.2   1 <1>   0.4210 
 16 C       -2.8310    -3.2780    -0.3150 C.3   1 <1>   0.1610 
 17 C       -3.5270    -5.6690    -0.7810 C.3   1 <1>   0.1610 
 18 O       -8.3460    -0.9720    -0.4630 O.2   1 <1>  -0.5740 
 19 N       -9.5030    -2.5330     0.7040 N.am  1 <1>  -0.4250 
 20 N       -8.4350    -4.6320     1.2030 N.am  1 <1>  -0.4410 
 21 C       -1.5810    -3.8160     0.4170 C.3   1 <1>   0.3380 
 22 C       -2.2730    -6.1550    -0.0180 C.3   1 <1>   0.3380 
 23 C       -9.5470    -3.8030     1.2680 C.2   1 <1>   0.6870 
 24 C      -10.7240    -1.6690     0.7800 C.3   1 <1>   0.0530 
 25 C       -8.4860    -6.0020     1.7980 C.3   1 <1>   0.0530 
 26 N       -1.1500    -5.1620    -0.0830 N.4   1 <1>  -0.9610 
 27 O      -10.5550    -4.1900     1.8210 O.2   1 <1>  -0.5740 
 28 C        0.0450    -5.6270     0.6740 C.3   1 <1>   0.3380 
 29 C        0.7110    -6.7730    -0.0770 C.3   1 <1>  -0.2460 
 30 H       -4.3140     1.0470     2.1920 H     1 <1>   0.1430 
 31 H       -1.7870     1.1050    -1.2230 H     1 <1>   0.1430 
 32 H       -5.8080    -0.5540     1.0860 H     1 <1>   0.1430 
 33 H       -3.2530    -0.5000    -2.3640 H     1 <1>   0.1430 
 34 H       -4.9650    -2.1310    -2.2440 H     1 <1>   0.0730 
 35 H       -6.3680    -1.2190    -1.8120 H     1 <1>   0.0730 
 36 H       -5.8780    -5.6800     0.8500 H     1 <1>   0.4450 
 37 H       -3.1540    -2.4170     0.2390 H     1 <1>   0.0730 
 38 H       -2.5530    -2.9600    -1.3050 H     1 <1>   0.0730 
 39 H       -3.3080    -5.6850    -1.8360 H     1 <1>   0.0730 
 40 H       -4.3270    -6.3710    -0.6180 H     1 <1>   0.0730 
 41 H       -1.8000    -3.8800     1.4710 H     1 <1>   0.0730 
 42 H       -0.7750    -3.1090     0.2990 H     1 <1>   0.0730 
 43 H       -1.9520    -7.0940    -0.4390 H     1 <1>   0.0730 
 44 H       -2.5340    -6.3330     1.0120 H     1 <1>   0.0730 
 45 H      -10.4740    -0.6300     0.6460 H     1 <1>   0.0730 
 46 H      -11.1970    -1.7780     1.7410 H     1 <1>   0.0730 
 47 H      -11.4210    -1.9630     0.0150 H     1 <1>   0.0730 
 48 H       -7.8630    -6.6820     1.2450 H     1 <1>   0.0730 
 49 H       -9.4930    -6.3840     1.7730 H     1 <1>   0.0730 
 50 H       -8.1610    -5.9650     2.8230 H     1 <1>   0.0730 
 51 H       -0.8450    -5.0670    -1.0630 H     1 <1>   0.4450 
 52 H       -0.2360    -5.9460     1.6660 H     1 <1>   0.0730 
 53 H        0.7540    -4.8190     0.7680 H     1 <1>   0.0730 
 54 H        0.0840    -7.6450    -0.1120 H     1 <1>   0.0730 
 55 H        1.6160    -7.0470     0.4370 H     1 <1>   0.0730 
 56 H        0.9790    -6.4760    -1.0760 H     1 <1>   0.0730 
@<TRIPOS>BOND
  1   1   2  1   
  2   2   3  ar  
  3   2   4  ar  
  4   3   5  ar  
  5   3  30  1   
  6   4   6  ar  
  7   4  31  1   
  8   5   7  ar  
  9   5  32  1   
 10   6   7  ar  
 11   6  33  1   
 12   7   8  1   
 13   8   9  1   
 14   8  34  1   
 15   8  35  1   
 16   9  10  ar  
 17   9  11  1   
 18  10  12  ar  
 19  10  13  ar  
 20  11  14  1   
 21  11  15  2   
 22  12  15  1   
 23  12  36  1   
 24  13  16  1   
 25  13  17  1   
 26  14  18  2   
 27  14  19  am  
 28  15  20  1   
 29  16  21  1   
 30  16  37  1   
 31  16  38  1   
 32  17  22  1   
 33  17  39  1   
 34  17  40  1   
 35  19  23  am  
 36  19  24  1   
 37  20  23  am  
 38  20  25  1   
 39  21  26  1   
 40  21  41  1   
 41  21  42  1   
 42  22  26  1   
 43  22  43  1   
 44  22  44  1   
 45  23  27  2   
 46  24  45  1   
 47  24  46  1   
 48  24  47  1   
 49  25  48  1   
 50  25  49  1   
 51  25  50  1   
 52  26  28  1   
 53  26  51  1   
 54  28  29  1   
 55  28  52  1   
 56  28  53  1   
 57  29  54  1   
 58  29  55  1   
 59  29  56  1   
@<TRIPOS>SUBSTRUCTURE
  1 ****   9 GROUP 4 **** **** 0

# MOE 2024.06 (io_trps.svl 2023.06)
