@<TRIPOS>MOLECULE
4-(2-Oxo-2-piperidin-1-yl-ethoxy)-benzoic acid methyl ester
39 40 1 0 0 
SMALL
USER_CHARGES


@<TRIPOS>ATOM
  1 O        0.3870    -1.7820    -2.5190 O.2   1 <1>  -0.5700 
  2 C        0.4870    -2.1520    -1.3670 C.2   1 <1>   0.6340 
  3 O       -0.4490    -1.7770    -0.4880 O.3   1 <1>  -0.4300 
  4 C        1.5740    -2.9860    -0.8920 C.ar  1 <1>   0.0860 
  5 C       -1.5440    -0.9660    -0.8680 C.3   1 <1>   0.0400 
  6 C        1.6640    -3.4030     0.4400 C.ar  1 <1>  -0.1500 
  7 C        2.5840    -3.4100    -1.7590 C.ar  1 <1>  -0.1500 
  8 C        2.7000    -4.2020     0.8850 C.ar  1 <1>  -0.1500 
  9 C        3.6240    -4.2090    -1.3230 C.ar  1 <1>  -0.1500 
 10 C        3.6890    -4.6160    -0.0010 C.ar  1 <1>   0.0830 
 11 O        4.7270    -5.4050     0.3440 O.3   1 <1>  -0.3620 
 12 C        4.8330    -5.9760     1.6390 C.3   1 <1>   0.1810 
 13 C        6.0130    -6.9400     1.7360 C.2   1 <1>   0.5690 
 14 O        6.8110    -6.7350     2.6230 O.2   1 <1>  -0.5700 
 15 N        6.1460    -8.0100     0.8800 N.am  1 <1>  -0.6600 
 16 C        5.1630    -8.3150    -0.2050 C.3   1 <1>   0.1400 
 17 C        7.3490    -8.8930     0.9720 C.3   1 <1>   0.1400 
 18 C        5.1990    -9.8030    -0.5700 C.3   1 <1>  -0.1600 
 19 C        7.7270    -9.4350    -0.4110 C.3   1 <1>  -0.1600 
 20 C        6.5900   -10.2520    -1.0500 C.3   1 <1>  -0.1600 
 21 H       -2.1590    -0.7960    -0.0030 H     1 <1>   0.0800 
 22 H       -2.1070    -1.4750    -1.6300 H     1 <1>   0.0800 
 23 H       -1.1680    -0.0310    -1.2460 H     1 <1>   0.0800 
 24 H        0.9070    -3.0940     1.1410 H     1 <1>   0.1500 
 25 H        2.5510    -3.1060    -2.7910 H     1 <1>   0.1500 
 26 H        2.7210    -4.4880     1.9200 H     1 <1>   0.1500 
 27 H        4.3930    -4.5230    -2.0060 H     1 <1>   0.1500 
 28 H        3.9260    -6.5070     1.8570 H     1 <1>   0.0800 
 29 H        4.9680    -5.1780     2.3450 H     1 <1>   0.0800 
 30 H        5.4060    -7.7230    -1.0710 H     1 <1>   0.0800 
 31 H        4.1680    -8.0570     0.1120 H     1 <1>   0.0800 
 32 H        7.1340    -9.7080     1.6400 H     1 <1>   0.0800 
 33 H        8.1800    -8.3390     1.3750 H     1 <1>   0.0800 
 34 H        4.4720   -10.0060    -1.3360 H     1 <1>   0.0800 
 35 H        4.9180   -10.3690     0.3000 H     1 <1>   0.0800 
 36 H        8.6090   -10.0450    -0.3300 H     1 <1>   0.0800 
 37 H        7.9700    -8.5980    -1.0410 H     1 <1>   0.0800 
 38 H        6.6560   -10.1510    -2.1200 H     1 <1>   0.0800 
 39 H        6.7160   -11.2950    -0.8140 H     1 <1>   0.0800 
@<TRIPOS>BOND
  1   1   2  2   
  2   2   3  1   
  3   2   4  1   
  4   3   5  1   
  5   4   6  ar  
  6   4   7  ar  
  7   5  21  1   
  8   5  22  1   
  9   5  23  1   
 10   6   8  ar  
 11   6  24  1   
 12   7   9  ar  
 13   7  25  1   
 14   8  10  ar  
 15   8  26  1   
 16   9  10  ar  
 17   9  27  1   
 18  10  11  1   
 19  11  12  1   
 20  12  13  1   
 21  12  28  1   
 22  12  29  1   
 23  13  14  2   
 24  13  15  am  
 25  15  16  1   
 26  15  17  1   
 27  16  18  1   
 28  16  30  1   
 29  16  31  1   
 30  17  19  1   
 31  17  32  1   
 32  17  33  1   
 33  18  20  1   
 34  18  34  1   
 35  18  35  1   
 36  19  20  1   
 37  19  36  1   
 38  19  37  1   
 39  20  38  1   
 40  20  39  1   
@<TRIPOS>SUBSTRUCTURE
  1 ****  10 GROUP 4 **** **** 0

# MOE 2024.06 (io_trps.svl 2023.06)
