@<TRIPOS>MOLECULE
Ethyl-(3-m-tolyl-[1,2,4]oxadiazol-5-ylmethyl)-amine
31 32 1 0 0 
SMALL
USER_CHARGES


@<TRIPOS>ATOM
  1 O       -0.3530    -0.3300     1.0050 O.3   1 <1>  -0.0190 
  2 N       -1.6030    -0.0320     0.8460 N.2   1 <1>  -0.4100 
  3 C       -0.2600    -1.5620     0.5770 C.2   1 <1>   0.2980 
  4 C       -2.1940    -1.0590     0.3420 C.2   1 <1>   0.4620 
  5 N       -1.3450    -2.0760     0.1620 N.2   1 <1>  -0.5650 
  6 C        1.1000    -2.2500     0.6410 C.3   1 <1>   0.2900 
  7 C       -3.6060    -1.1440     0.0030 C.ar  1 <1>   0.0540 
  8 N        2.1470    -1.5070    -0.0850 N.3   1 <1>  -0.9000 
  9 C       -4.4770    -0.0820     0.2560 C.ar  1 <1>  -0.1500 
 10 C       -4.1520    -2.2860    -0.5860 C.ar  1 <1>  -0.1500 
 11 C        3.4670    -2.0880     0.0940 C.3   1 <1>   0.1100 
 12 C       -5.8240    -0.1470    -0.0590 C.ar  1 <1>  -0.1430 
 13 C       -5.4960    -2.3640    -0.9030 C.ar  1 <1>  -0.1500 
 14 C        4.4620    -1.2320    -0.6740 C.3   1 <1>  -0.2400 
 15 C       -6.3330    -1.2960    -0.6390 C.ar  1 <1>  -0.1500 
 16 C       -6.7450     1.0250     0.2310 C.3   1 <1>  -0.0970 
 17 H        1.0080    -3.2350     0.2180 H     1 <1>   0.0800 
 18 H        1.3780    -2.3490     1.6750 H     1 <1>   0.0800 
 19 H        2.1580    -0.5370     0.2550 H     1 <1>   0.3600 
 20 H       -4.0860     0.8120     0.7090 H     1 <1>   0.1500 
 21 H       -3.5150    -3.1260    -0.7990 H     1 <1>   0.1500 
 22 H        3.4780    -3.0940    -0.2930 H     1 <1>   0.0800 
 23 H        3.7290    -2.1090     1.1390 H     1 <1>   0.0800 
 24 H       -5.8900    -3.2570    -1.3560 H     1 <1>   0.1500 
 25 H        4.2000    -1.2070    -1.7170 H     1 <1>   0.0800 
 26 H        5.4480    -1.6490    -0.5800 H     1 <1>   0.0800 
 27 H        4.4770    -0.2290    -0.2850 H     1 <1>   0.0800 
 28 H       -7.3780    -1.3620    -0.8880 H     1 <1>   0.1500 
 29 H       -6.1790     1.9180     0.4250 H     1 <1>   0.0800 
 30 H       -7.3520     0.8070     1.0910 H     1 <1>   0.0800 
 31 H       -7.3870     1.2070    -0.6120 H     1 <1>   0.0800 
@<TRIPOS>BOND
  1   1   2  1   
  2   1   3  1   
  3   2   4  2   
  4   3   5  2   
  5   3   6  1   
  6   4   5  1   
  7   4   7  1   
  8   6   8  1   
  9   6  17  1   
 10   6  18  1   
 11   7   9  ar  
 12   7  10  ar  
 13   8  11  1   
 14   8  19  1   
 15   9  12  ar  
 16   9  20  1   
 17  10  13  ar  
 18  10  21  1   
 19  11  14  1   
 20  11  22  1   
 21  11  23  1   
 22  12  15  ar  
 23  12  16  1   
 24  13  15  ar  
 25  13  24  1   
 26  14  25  1   
 27  14  26  1   
 28  14  27  1   
 29  15  28  1   
 30  16  29  1   
 31  16  30  1   
 32  16  31  1   
@<TRIPOS>SUBSTRUCTURE
  1 ****   4 GROUP 4 **** **** 0

# MOE 2024.06 (io_trps.svl 2023.06)
