@<TRIPOS>MOLECULE
4-Chloro-N,N-diethyl-3-(morpholine-4-sulfonyl)-benzamide
44 45 1 0 0 
SMALL
USER_CHARGES


@<TRIPOS>ATOM
  1 CL       0.5850    -2.2360     3.2130 Cl    1 <1>  -0.1770 
  2 C        1.8140    -1.8730     2.0290 C.ar  1 <1>   0.1770 
  3 C        1.7900    -2.4050     0.7450 C.ar  1 <1>  -0.0090 
  4 C        2.8120    -1.0060     2.4370 C.ar  1 <1>  -0.1500 
  5 S        0.5030    -3.5330     0.1500 S.o2  1 <1>   1.4470 
  6 C        2.8040    -2.0090    -0.1200 C.ar  1 <1>  -0.1500 
  7 C        3.8110    -0.6430     1.5550 C.ar  1 <1>  -0.1500 
  8 O        1.0680    -4.3010    -0.9390 O.2   1 <1>  -0.6500 
  9 O       -0.1610    -4.2540     1.2110 O.2   1 <1>  -0.6500 
 10 N       -0.6380    -2.4900    -0.5440 N.am  1 <1>  -0.8490 
 11 C        3.8280    -1.1420     0.2550 C.ar  1 <1>   0.0860 
 12 C       -1.4870    -1.8150     0.4530 C.3   1 <1>   0.1960 
 13 C       -1.4950    -3.1950    -1.5110 C.3   1 <1>   0.1960 
 14 C        4.8610    -0.7640    -0.6880 C.2   1 <1>   0.5440 
 15 C       -2.5160    -0.8930    -0.2270 C.3   1 <1>   0.1200 
 16 C       -2.5290    -2.2430    -2.1390 C.3   1 <1>   0.1200 
 17 O        4.5530    -0.0560    -1.6270 O.2   1 <1>  -0.5700 
 18 N        6.1690    -1.1860    -0.5500 N.am  1 <1>  -0.6600 
 19 O       -3.2870    -1.6120    -1.1460 O.3   1 <1>  -0.5600 
 20 C        6.6080    -2.1740     0.4730 C.3   1 <1>   0.1400 
 21 C        7.2480    -0.6100    -1.4030 C.3   1 <1>   0.1400 
 22 C        6.1840    -3.5860     0.0700 C.3   1 <1>  -0.2400 
 23 C        7.6240    -1.5870    -2.5140 C.3   1 <1>  -0.2400 
 24 H        2.8000    -0.6140     3.4390 H     1 <1>   0.1500 
 25 H        2.8090    -2.3820    -1.1320 H     1 <1>   0.1500 
 26 H        4.5860     0.0380     1.8630 H     1 <1>   0.1500 
 27 H       -0.8760    -1.2190     1.1070 H     1 <1>   0.0800 
 28 H       -2.0130    -2.5400     1.0520 H     1 <1>   0.0800 
 29 H       -2.0100    -4.0080    -1.0240 H     1 <1>   0.0800 
 30 H       -0.8890    -3.6100    -2.2990 H     1 <1>   0.0800 
 31 H       -2.0200    -0.0910    -0.7450 H     1 <1>   0.0800 
 32 H       -3.1840    -0.4750     0.5050 H     1 <1>   0.0800 
 33 H       -3.2050    -2.7910    -2.7710 H     1 <1>   0.0800 
 34 H       -2.0360    -1.4890    -2.7280 H     1 <1>   0.0800 
 35 H        6.1850    -1.9240     1.4300 H     1 <1>   0.0800 
 36 H        7.6800    -2.1390     0.5730 H     1 <1>   0.0800 
 37 H        8.1090    -0.3860    -0.7980 H     1 <1>   0.0800 
 38 H        6.9140     0.3140    -1.8440 H     1 <1>   0.0800 
 39 H        5.1140    -3.6700     0.0280 H     1 <1>   0.0800 
 40 H        6.5470    -4.2910     0.7950 H     1 <1>   0.0800 
 41 H        6.5940    -3.8460    -0.8880 H     1 <1>   0.0800 
 42 H        8.0690    -2.4750    -2.1060 H     1 <1>   0.0800 
 43 H        8.3360    -1.1250    -3.1730 H     1 <1>   0.0800 
 44 H        6.7500    -1.8470    -3.0830 H     1 <1>   0.0800 
@<TRIPOS>BOND
  1   1   2  1   
  2   2   3  ar  
  3   2   4  ar  
  4   3   5  1   
  5   3   6  ar  
  6   4   7  ar  
  7   4  24  1   
  8   5   8  2   
  9   5   9  2   
 10   5  10  am  
 11   6  11  ar  
 12   6  25  1   
 13   7  11  ar  
 14   7  26  1   
 15  10  12  1   
 16  10  13  1   
 17  11  14  1   
 18  12  15  1   
 19  12  27  1   
 20  12  28  1   
 21  13  16  1   
 22  13  29  1   
 23  13  30  1   
 24  14  17  2   
 25  14  18  am  
 26  15  19  1   
 27  15  31  1   
 28  15  32  1   
 29  16  19  1   
 30  16  33  1   
 31  16  34  1   
 32  18  20  1   
 33  18  21  1   
 34  20  22  1   
 35  20  35  1   
 36  20  36  1   
 37  21  23  1   
 38  21  37  1   
 39  21  38  1   
 40  22  39  1   
 41  22  40  1   
 42  22  41  1   
 43  23  42  1   
 44  23  43  1   
 45  23  44  1   
@<TRIPOS>SUBSTRUCTURE
  1 ****   6 GROUP 4 **** **** 0

# MOE 2024.06 (io_trps.svl 2023.06)
