@<TRIPOS>MOLECULE
3-(2-Cyclohexyl-benzoimidazol-1-yl)-propionitrile
38 40 1 0 0 
SMALL
USER_CHARGES


@<TRIPOS>ATOM
  1 N        0.0140     0.8300     1.8150 N.1   1 <1>  -0.5570 
  2 C       -0.2540     1.9190     1.6340 C.1   1 <1>   0.3570 
  3 C       -0.5840     3.3400     1.3580 C.3   1 <1>   0.0400 
  4 C       -0.2270     3.6830    -0.0890 C.3   1 <1>   0.0960 
  5 N       -0.5210     5.1050    -0.3510 N.pl3 1 <1>   0.0480 
  6 C       -1.7450     5.6010    -0.6750 C.ar  1 <1>  -0.1520 
  7 C        0.2990     6.1910    -0.2300 C.2   1 <1>   0.0060 
  8 C       -1.5840     6.9720    -0.7310 C.ar  1 <1>   0.2270 
  9 C       -2.9880     5.0120    -0.9260 C.ar  1 <1>  -0.1500 
 10 N       -0.2990     7.3120    -0.4500 N.2   1 <1>  -0.5650 
 11 C        1.7840     6.0720     0.1260 C.3   1 <1>   0.1000 
 12 C       -2.6680     7.7910    -1.0410 C.ar  1 <1>  -0.1500 
 13 C       -4.0550     5.8290    -1.2310 C.ar  1 <1>  -0.1500 
 14 C        2.3160     7.3270     0.8420 C.3   1 <1>  -0.1600 
 15 C        2.6130     5.7920    -1.1390 C.3   1 <1>  -0.1600 
 16 C       -3.8960     7.2190    -1.2880 C.ar  1 <1>  -0.1500 
 17 C        3.8090     7.1960     1.1780 C.3   1 <1>  -0.1600 
 18 C        4.1090     5.6580    -0.8170 C.3   1 <1>  -0.1600 
 19 C        4.6320     6.9000    -0.0830 C.3   1 <1>  -0.1600 
 20 H       -0.0270     3.9600     2.0370 H     1 <1>   0.0800 
 21 H       -1.6350     3.4900     1.5270 H     1 <1>   0.0800 
 22 H       -0.8030     3.0800    -0.7690 H     1 <1>   0.0800 
 23 H        0.8150     3.4930    -0.2750 H     1 <1>   0.0800 
 24 H       -3.1090     3.9450    -0.8850 H     1 <1>   0.1500 
 25 H        1.9090     5.2490     0.8060 H     1 <1>   0.0800 
 26 H       -2.5130     8.8530    -1.0780 H     1 <1>   0.1500 
 27 H       -5.0240     5.4060    -1.4300 H     1 <1>   0.1500 
 28 H        1.7520     7.4920     1.7430 H     1 <1>   0.0800 
 29 H        2.1720     8.1860     0.2070 H     1 <1>   0.0800 
 30 H        2.4690     6.6040    -1.8330 H     1 <1>   0.0800 
 31 H        2.2670     4.8930    -1.6150 H     1 <1>   0.0800 
 32 H       -4.7430     7.8380    -1.5290 H     1 <1>   0.1500 
 33 H        3.9480     6.4020     1.8910 H     1 <1>   0.0800 
 34 H        4.1560     8.1090     1.6280 H     1 <1>   0.0800 
 35 H        4.6620     5.5230    -1.7310 H     1 <1>   0.0800 
 36 H        4.2680     4.7880    -0.2030 H     1 <1>   0.0800 
 37 H        5.6640     6.7540     0.1850 H     1 <1>   0.0800 
 38 H        4.5810     7.7490    -0.7440 H     1 <1>   0.0800 
@<TRIPOS>BOND
  1   1   2  3   
  2   2   3  1   
  3   3   4  1   
  4   3  20  1   
  5   3  21  1   
  6   4   5  1   
  7   4  22  1   
  8   4  23  1   
  9   5   6  1   
 10   5   7  1   
 11   6   8  ar  
 12   6   9  ar  
 13   7  10  2   
 14   7  11  1   
 15   8  10  1   
 16   8  12  ar  
 17   9  13  ar  
 18   9  24  1   
 19  11  14  1   
 20  11  15  1   
 21  11  25  1   
 22  12  16  ar  
 23  12  26  1   
 24  13  16  ar  
 25  13  27  1   
 26  14  17  1   
 27  14  28  1   
 28  14  29  1   
 29  15  18  1   
 30  15  30  1   
 31  15  31  1   
 32  16  32  1   
 33  17  19  1   
 34  17  33  1   
 35  17  34  1   
 36  18  19  1   
 37  18  35  1   
 38  18  36  1   
 39  19  37  1   
 40  19  38  1   
@<TRIPOS>SUBSTRUCTURE
  1 ****   7 GROUP 4 **** **** 0

# MOE 2024.06 (io_trps.svl 2023.06)
