@<TRIPOS>MOLECULE
7-Thiocyanato-1,3,5-triaza-tricyclo[3.3.1.1*3,7*]decane
26 28 1 0 0 
SMALL
USER_CHARGES


@<TRIPOS>ATOM
  1 S       -0.0100    -0.4930    -1.8350 S.3   1 <1>  -0.2660 
  2 C        0.8040     0.5230    -0.5930 C.1   1 <1>   0.5930 
  3 C       -0.4740    -1.9930    -0.8600 C.3   1 <1>   0.2300 
  4 N        1.2550     1.0610     0.3000 N.1   1 <1>  -0.5570 
  5 C       -1.2790    -1.6230     0.3940 C.3   1 <1>   0.3430 
  6 C        0.7700    -2.7680    -0.4030 C.3   1 <1>   0.1100 
  7 C       -1.3440    -2.9310    -1.7040 C.3   1 <1>   0.1100 
  8 N       -1.6340    -2.8840     1.1350 N.4   1 <1>  -0.9590 
  9 N        0.3110    -3.9560     0.3550 N.3   1 <1>  -0.8100 
 10 N       -1.6820    -4.1110    -0.8720 N.3   1 <1>  -0.8100 
 11 C       -0.4210    -3.6130     1.5590 C.3   1 <1>   0.6130 
 12 C       -2.4650    -3.7770     0.3010 C.3   1 <1>   0.6130 
 13 C       -0.4820    -4.8490    -0.4860 C.3   1 <1>   0.3800 
 14 H       -2.1750    -1.1000     0.1040 H     1 <1>   0.0800 
 15 H       -0.6900    -0.9810     1.0280 H     1 <1>   0.0800 
 16 H        1.4000    -2.1590     0.2230 H     1 <1>   0.0800 
 17 H        1.3460    -3.0850    -1.2570 H     1 <1>   0.0800 
 18 H       -0.8060    -3.2490    -2.5820 H     1 <1>   0.0800 
 19 H       -2.2450    -2.4340    -2.0220 H     1 <1>   0.0800 
 20 H       -2.1680    -2.6500     1.9750 H     1 <1>   0.4500 
 21 H        0.1950    -2.9970     2.1960 H     1 <1>   0.0800 
 22 H       -0.6810    -4.5140     2.0950 H     1 <1>   0.0800 
 23 H       -3.3770    -3.2840     0.0010 H     1 <1>   0.0800 
 24 H       -2.7190    -4.6780     0.8380 H     1 <1>   0.0800 
 25 H       -0.7440    -5.7460     0.0530 H     1 <1>   0.0800 
 26 H        0.0800    -5.1350    -1.3620 H     1 <1>   0.0800 
@<TRIPOS>BOND
  1   1   2  1   
  2   1   3  1   
  3   2   4  3   
  4   3   5  1   
  5   3   6  1   
  6   3   7  1   
  7   5   8  1   
  8   5  14  1   
  9   5  15  1   
 10   6   9  1   
 11   6  16  1   
 12   6  17  1   
 13   7  10  1   
 14   7  18  1   
 15   7  19  1   
 16   8  11  1   
 17   8  12  1   
 18   8  20  1   
 19   9  11  1   
 20   9  13  1   
 21  10  12  1   
 22  10  13  1   
 23  11  21  1   
 24  11  22  1   
 25  12  23  1   
 26  12  24  1   
 27  13  25  1   
 28  13  26  1   
@<TRIPOS>SUBSTRUCTURE
  1 ****   3 GROUP 4 **** **** 0

# MOE 2024.06 (io_trps.svl 2023.06)
