@<TRIPOS>MOLECULE
3-Allyl-1,7-dimethyl-8-(tetrahydro-furan-2-ylmethyl)-1H,8H-imidazo[2,1-f]purine-
47 50 1 0 0 
SMALL
USER_CHARGES


@<TRIPOS>ATOM
  1 O        1.5440    -0.5530     0.8340 O.2   1 <1>  -0.5750 
  2 C        2.2790     0.4140     0.8260 C.2   1 <1>   0.6860 
  3 N        1.7470     1.6970     0.8530 N.am  1 <1>  -0.4260 
  4 N        3.6560     0.2330     0.7970 N.am  1 <1>  -0.4420 
  5 C        2.5600     2.8180     0.9080 C.2   1 <1>   0.6990 
  6 C        0.2820     1.8750     0.6980 C.3   1 <1>   0.2710 
  7 C        4.4620     1.3530     0.8390 C.2   1 <1>   0.4200 
  8 C        4.2490    -1.1370     0.7580 C.3   1 <1>   0.0520 
  9 O        2.0900     3.9410     0.9920 O.2   1 <1>  -0.5750 
 10 C        3.9700     2.6150     0.8840 C.2   1 <1>   0.2700 
 11 C       -0.0450     1.9160    -0.7820 C.2   1 <1>  -0.2950 
 12 N        5.8230     1.4070     0.8340 N.pl3 1 <1>  -0.7040 
 13 N        5.0840     3.4710     0.8900 N.pl3 1 <1>  -0.6330 
 14 C       -0.4500     3.0000    -1.4510 C.2   1 <1>  -0.3070 
 15 C        6.1600     2.6950     0.8530 C.cat 1 <1>   1.0690 
 16 C        5.5310     4.7760     0.8970 C.2   1 <1>   0.2220 
 17 N        7.2910     3.4140     0.8390 N.pl3 1 <1>  -0.5720 
 18 C        6.8830     4.7420     0.8680 C.2   1 <1>   0.1570 
 19 C        8.6930     2.8890     0.8930 C.3   1 <1>   0.1600 
 20 C        7.8610     5.9020     0.8670 C.3   1 <1>  -0.1100 
 21 C        9.0260     1.8870    -0.2290 C.3   1 <1>   0.1920 
 22 O        8.2330     0.7420    -0.1360 O.3   1 <1>  -0.5650 
 23 C       10.4510     1.3560    -0.1600 C.3   1 <1>  -0.1680 
 24 C        8.8460    -0.3110    -0.8170 C.3   1 <1>   0.1120 
 25 C       10.3420    -0.0120    -0.8120 C.3   1 <1>  -0.1680 
 26 H       -0.0340     2.7890     1.1710 H     1 <1>   0.0720 
 27 H       -0.2510     1.0670     1.1700 H     1 <1>   0.0720 
 28 H        3.5610    -1.8320     0.3070 H     1 <1>   0.0720 
 29 H        4.4660    -1.4660     1.7590 H     1 <1>   0.0720 
 30 H        5.1550    -1.1390     0.1770 H     1 <1>   0.0720 
 31 H        0.0840     0.9570    -1.2570 H     1 <1>   0.1420 
 32 H        6.5420     0.7000     0.6250 H     1 <1>   0.4440 
 33 H       -0.6800     3.0050    -2.5030 H     1 <1>   0.1420 
 34 H       -0.5870     3.9720    -1.0070 H     1 <1>   0.1420 
 35 H        4.8560     5.6190     0.9230 H     1 <1>   0.1420 
 36 H        8.8570     2.4170     1.8470 H     1 <1>   0.0720 
 37 H        9.3830     3.7110     0.8200 H     1 <1>   0.0720 
 38 H        8.4980     5.8540     1.7320 H     1 <1>   0.0720 
 39 H        7.3320     6.8380     0.8860 H     1 <1>   0.0720 
 40 H        8.4700     5.8740    -0.0190 H     1 <1>   0.0720 
 41 H        8.8530     2.3310    -1.1960 H     1 <1>   0.0720 
 42 H       10.7610     1.2470     0.8650 H     1 <1>   0.0720 
 43 H       11.1450     1.9990    -0.6720 H     1 <1>   0.0720 
 44 H        8.4610    -0.3350    -1.8230 H     1 <1>   0.0720 
 45 H        8.6190    -1.2340    -0.3120 H     1 <1>   0.0720 
 46 H       10.8870    -0.7580    -0.2590 H     1 <1>   0.0720 
 47 H       10.7120     0.0090    -1.8230 H     1 <1>   0.0720 
@<TRIPOS>BOND
  1   1   2  2   
  2   2   3  am  
  3   2   4  am  
  4   3   5  am  
  5   3   6  1   
  6   4   7  1   
  7   4   8  1   
  8   5   9  2   
  9   5  10  1   
 10   6  11  1   
 11   6  26  1   
 12   6  27  1   
 13   7  10  2   
 14   7  12  1   
 15   8  28  1   
 16   8  29  1   
 17   8  30  1   
 18  10  13  1   
 19  11  14  2   
 20  11  31  1   
 21  12  15  ar  
 22  12  32  1   
 23  13  15  ar  
 24  13  16  1   
 25  14  33  1   
 26  14  34  1   
 27  15  17  ar  
 28  16  18  2   
 29  16  35  1   
 30  17  18  1   
 31  17  19  1   
 32  18  20  1   
 33  19  21  1   
 34  19  36  1   
 35  19  37  1   
 36  20  38  1   
 37  20  39  1   
 38  20  40  1   
 39  21  22  1   
 40  21  23  1   
 41  21  41  1   
 42  22  24  1   
 43  23  25  1   
 44  23  42  1   
 45  23  43  1   
 46  24  25  1   
 47  24  44  1   
 48  24  45  1   
 49  25  46  1   
 50  25  47  1   
@<TRIPOS>SUBSTRUCTURE
  1 ****   7 GROUP 4 **** **** 0

# MOE 2024.06 (io_trps.svl 2023.06)
