@<TRIPOS>MOLECULE
4-Dimethylaminomethyl-benzoic acid
26 26 1 0 0 
SMALL
USER_CHARGES


@<TRIPOS>ATOM
  1 O        0.4170     0.4980     0.0880 O.co2 1 <1>  -0.9000 
  2 C        1.5330     0.7500     0.5750 C.2   1 <1>   0.9790 
  3 O        1.6360     1.6690     1.4070 O.co2 1 <1>  -0.9000 
  4 C        2.7020    -0.0320     0.1900 C.ar  1 <1>  -0.1790 
  5 C        2.6090    -1.0700    -0.7370 C.ar  1 <1>  -0.1500 
  6 C        3.9600     0.2250     0.7340 C.ar  1 <1>  -0.1500 
  7 C        3.7080    -1.8300    -1.0870 C.ar  1 <1>  -0.1500 
  8 C        5.0660    -0.5280     0.3910 C.ar  1 <1>  -0.1500 
  9 C        4.9430    -1.5720    -0.5130 C.ar  1 <1>  -0.1430 
 10 C        6.1360    -2.4370    -0.8490 C.3   1 <1>   0.4870 
 11 N        6.3950    -3.3290     0.3190 N.4   1 <1>  -0.9590 
 12 C        7.6830    -4.0700     0.1790 C.3   1 <1>   0.2630 
 13 C        5.2430    -4.2560     0.5650 C.3   1 <1>   0.2630 
 14 H        1.6450    -1.2710    -1.1780 H     1 <1>   0.1500 
 15 H        4.0510     1.0360     1.4400 H     1 <1>   0.1500 
 16 H        3.5770    -2.6190    -1.8070 H     1 <1>   0.1500 
 17 H        6.0120    -0.2820     0.8410 H     1 <1>   0.1500 
 18 H        6.9900    -1.8070    -1.0360 H     1 <1>   0.0800 
 19 H        5.9340    -3.0200    -1.7320 H     1 <1>   0.0800 
 20 H        6.4430    -2.6970     1.1330 H     1 <1>   0.4500 
 21 H        7.6470    -4.7270    -0.6750 H     1 <1>   0.0800 
 22 H        7.8700    -4.6620     1.0610 H     1 <1>   0.0800 
 23 H        8.5010    -3.3790     0.0510 H     1 <1>   0.0800 
 24 H        5.0910    -4.9030    -0.2830 H     1 <1>   0.0800 
 25 H        4.3390    -3.6910     0.7340 H     1 <1>   0.0800 
 26 H        5.4300    -4.8630     1.4360 H     1 <1>   0.0800 
@<TRIPOS>BOND
  1   1   2  ar  
  2   2   3  ar  
  3   2   4  1   
  4   4   5  ar  
  5   4   6  ar  
  6   5   7  ar  
  7   5  14  1   
  8   6   8  ar  
  9   6  15  1   
 10   7   9  ar  
 11   7  16  1   
 12   8   9  ar  
 13   8  17  1   
 14   9  10  1   
 15  10  11  1   
 16  10  18  1   
 17  10  19  1   
 18  11  12  1   
 19  11  13  1   
 20  11  20  1   
 21  12  21  1   
 22  12  22  1   
 23  12  23  1   
 24  13  24  1   
 25  13  25  1   
 26  13  26  1   
@<TRIPOS>SUBSTRUCTURE
  1 ****   9 GROUP 4 **** **** 0

# MOE 2024.06 (io_trps.svl 2023.06)
