@<TRIPOS>MOLECULE
4-Phenyl-tetrahydro-pyran-4-carboxylic acid isopropylamide
39 40 1 0 0 
SMALL
USER_CHARGES


@<TRIPOS>ATOM
  1 O        1.2310     2.7020     0.8130 O.2   1 <1>  -0.5700 
  2 C        0.3900     2.2530     0.0670 C.2   1 <1>   0.5690 
  3 N        0.6890     1.2270    -0.7780 N.am  1 <1>  -0.7300 
  4 C       -1.0500     2.8270     0.0430 C.3   1 <1>   0.2040 
  5 C        1.9750     0.5340    -0.8740 C.3   1 <1>   0.2200 
  6 C       -2.0320     1.6370    -0.1170 C.ar  1 <1>  -0.1440 
  7 C       -1.4180     3.5850     1.3450 C.3   1 <1>  -0.1600 
  8 C       -1.1510     3.8430    -1.1200 C.3   1 <1>  -0.1600 
  9 C        2.4240     0.5670    -2.3300 C.3   1 <1>  -0.2400 
 10 C        1.7770    -0.8960    -0.3850 C.3   1 <1>  -0.2400 
 11 C       -2.0370     0.6470     0.8610 C.ar  1 <1>  -0.1500 
 12 C       -2.8980     1.4870    -1.1980 C.ar  1 <1>  -0.1500 
 13 C       -0.7020     4.9380     1.4870 C.3   1 <1>   0.1200 
 14 C       -0.3630     5.1200    -0.8200 C.3   1 <1>   0.1200 
 15 C       -2.8770    -0.4490     0.7710 C.ar  1 <1>  -0.1500 
 16 C       -3.7390     0.3910    -1.2910 C.ar  1 <1>  -0.1500 
 17 O       -0.8920     5.6920     0.3320 O.3   1 <1>  -0.5600 
 18 C       -3.7310    -0.5780    -0.3060 C.ar  1 <1>  -0.1500 
 19 H       -0.0810     0.7870    -1.2860 H     1 <1>   0.3700 
 20 H        2.7080     1.0300    -0.2570 H     1 <1>   0.0800 
 21 H       -1.1820     2.9840     2.2030 H     1 <1>   0.0800 
 22 H       -2.4770     3.7680     1.3600 H     1 <1>   0.0800 
 23 H       -2.1740     4.1370    -1.2700 H     1 <1>   0.0800 
 24 H       -0.7850     3.4040    -2.0300 H     1 <1>   0.0800 
 25 H        1.7080     0.0760    -2.9630 H     1 <1>   0.0800 
 26 H        3.3710     0.0680    -2.4310 H     1 <1>   0.0800 
 27 H        2.5460     1.5860    -2.6510 H     1 <1>   0.0800 
 28 H        1.0470    -1.4100    -0.9840 H     1 <1>   0.0800 
 29 H        1.4540    -0.8890     0.6410 H     1 <1>   0.0800 
 30 H        2.7070    -1.4330    -0.4400 H     1 <1>   0.0800 
 31 H       -1.3770     0.7170     1.7080 H     1 <1>   0.1500 
 32 H       -2.9440     2.2070    -1.9930 H     1 <1>   0.1500 
 33 H        0.3560     4.8210     1.6500 H     1 <1>   0.0800 
 34 H       -1.1140     5.4930     2.3110 H     1 <1>   0.0800 
 35 H       -0.4750     5.8310    -1.6190 H     1 <1>   0.0800 
 36 H        0.6860     4.9260    -0.6670 H     1 <1>   0.0800 
 37 H       -2.8640    -1.2010     1.5410 H     1 <1>   0.1500 
 38 H       -4.4040     0.2930    -2.1310 H     1 <1>   0.1500 
 39 H       -4.3860    -1.4290    -0.3780 H     1 <1>   0.1500 
@<TRIPOS>BOND
  1   1   2  2   
  2   2   3  am  
  3   2   4  1   
  4   3   5  1   
  5   3  19  1   
  6   4   6  1   
  7   4   7  1   
  8   4   8  1   
  9   5   9  1   
 10   5  10  1   
 11   5  20  1   
 12   6  11  ar  
 13   6  12  ar  
 14   7  13  1   
 15   7  21  1   
 16   7  22  1   
 17   8  14  1   
 18   8  23  1   
 19   8  24  1   
 20   9  25  1   
 21   9  26  1   
 22   9  27  1   
 23  10  28  1   
 24  10  29  1   
 25  10  30  1   
 26  11  15  ar  
 27  11  31  1   
 28  12  16  ar  
 29  12  32  1   
 30  13  17  1   
 31  13  33  1   
 32  13  34  1   
 33  14  17  1   
 34  14  35  1   
 35  14  36  1   
 36  15  18  ar  
 37  15  37  1   
 38  16  18  ar  
 39  16  38  1   
 40  18  39  1   
@<TRIPOS>SUBSTRUCTURE
  1 ****   4 GROUP 4 **** **** 0

# MOE 2024.06 (io_trps.svl 2023.06)
