@<TRIPOS>MOLECULE
2-Chloro-N-[1-(5-mercapto-4-methyl-4H-[1,2,4]triazol-3-yl)-2-methyl-propyl]-benz
38 39 1 0 0 
SMALL
USER_CHARGES


@<TRIPOS>ATOM
  1 CL       1.5040    -0.0020     1.5300 Cl    1 <1>  -0.1770 
  2 C        1.8330    -1.4940     0.6810 C.ar  1 <1>   0.1770 
  3 C        2.7540    -1.5460    -0.3700 C.ar  1 <1>   0.0860 
  4 C        1.1310    -2.6090     1.1010 C.ar  1 <1>  -0.1500 
  5 C        3.5220    -0.4080    -0.8390 C.2   1 <1>   0.5440 
  6 C        2.9220    -2.7870    -0.9890 C.ar  1 <1>  -0.1500 
  7 C        1.3270    -3.8250     0.4720 C.ar  1 <1>  -0.1500 
  8 O        3.7670    -0.2820    -2.0210 O.2   1 <1>  -0.5700 
  9 N        4.0270     0.5330     0.0080 N.am  1 <1>  -0.7300 
 10 C        2.2250    -3.9100    -0.5770 C.ar  1 <1>  -0.1500 
 11 C        4.8310     1.7030    -0.4580 C.3   1 <1>   0.3880 
 12 C        6.1970     1.2830    -1.0470 C.2   1 <1>   0.4850 
 13 C        4.9800     2.7310     0.6950 C.3   1 <1>  -0.0800 
 14 N        6.6430     1.7160    -2.1760 N.2   1 <1>  -0.2600 
 15 N        7.0940     0.4290    -0.4270 N.pl3 1 <1>  -0.7640 
 16 C        3.6210     3.1940     1.2540 C.3   1 <1>  -0.2400 
 17 C        5.7690     3.9780     0.2520 C.3   1 <1>  -0.2400 
 18 N        7.8650     1.1190    -2.2980 N.pl3 1 <1>  -0.3930 
 19 C        8.1140     0.3560    -1.2590 C.cat 1 <1>   0.7360 
 20 C        6.9890    -0.3900     0.7980 C.3   1 <1>   0.2740 
 21 S        9.4590    -0.5290    -1.0520 S.3   1 <1>  -0.9360 
 22 H        0.4310    -2.5270     1.9140 H     1 <1>   0.1500 
 23 H        3.6150    -2.8690    -1.8110 H     1 <1>   0.1500 
 24 H        0.7830    -4.6980     0.7920 H     1 <1>   0.1500 
 25 H        3.6330     0.6190     0.9460 H     1 <1>   0.3700 
 26 H        2.3810    -4.8520    -1.0760 H     1 <1>   0.1500 
 27 H        4.2800     2.1770    -1.2530 H     1 <1>   0.0800 
 28 H        5.5360     2.2690     1.4920 H     1 <1>   0.0800 
 29 H        3.0120     3.6160     0.4730 H     1 <1>   0.0800 
 30 H        3.7640     3.9450     2.0120 H     1 <1>   0.0800 
 31 H        3.0830     2.3820     1.7060 H     1 <1>   0.0800 
 32 H        5.2860     4.4620    -0.5790 H     1 <1>   0.0800 
 33 H        6.7730     3.7200    -0.0370 H     1 <1>   0.0800 
 34 H        5.8390     4.6840     1.0610 H     1 <1>   0.0800 
 35 H        8.5240     1.1870    -3.0720 H     1 <1>   0.4500 
 36 H        6.3030     0.0530     1.4940 H     1 <1>   0.0800 
 37 H        7.9550    -0.4720     1.2680 H     1 <1>   0.0800 
 38 H        6.6480    -1.3770     0.5380 H     1 <1>   0.0800 
@<TRIPOS>BOND
  1   1   2  1   
  2   2   3  ar  
  3   2   4  ar  
  4   3   5  1   
  5   3   6  ar  
  6   4   7  ar  
  7   4  22  1   
  8   5   8  2   
  9   5   9  am  
 10   6  10  ar  
 11   6  23  1   
 12   7  10  ar  
 13   7  24  1   
 14   9  11  1   
 15   9  25  1   
 16  10  26  1   
 17  11  12  1   
 18  11  13  1   
 19  11  27  1   
 20  12  14  2   
 21  12  15  1   
 22  13  16  1   
 23  13  17  1   
 24  13  28  1   
 25  14  18  1   
 26  15  19  ar  
 27  15  20  1   
 28  16  29  1   
 29  16  30  1   
 30  16  31  1   
 31  17  32  1   
 32  17  33  1   
 33  17  34  1   
 34  18  19  ar  
 35  18  35  1   
 36  19  21  1   
 37  20  36  1   
 38  20  37  1   
 39  20  38  1   
@<TRIPOS>SUBSTRUCTURE
  1 ****   9 GROUP 4 **** **** 0

# MOE 2024.06 (io_trps.svl 2023.06)
