@<TRIPOS>MOLECULE
4-(Morpholine-4-sulfonyl)-piperazine-1-sulfonic acid diethylamide
49 50 1 0 0 
SMALL
USER_CHARGES


@<TRIPOS>ATOM
  1 S       -0.5170     0.4250    -1.1390 S.o2  1 <1>   1.5760 
  2 O       -0.6660    -0.3090    -2.3760 O.2   1 <1>  -0.6500 
  3 O       -0.8570     1.8280    -1.0510 O.2   1 <1>  -0.6500 
  4 N        1.0780     0.2470    -0.6200 N.am  1 <1>  -0.8490 
  5 N       -1.3220    -0.4140     0.0970 N.am  1 <1>  -0.8490 
  6 C        1.5420    -1.1450    -0.6070 C.3   1 <1>   0.1960 
  7 C        1.3570     0.9060     0.6610 C.3   1 <1>   0.1960 
  8 C       -2.0340    -1.6240    -0.3650 C.3   1 <1>   0.1960 
  9 C       -2.2420     0.4270     0.8910 C.3   1 <1>   0.1960 
 10 C        3.0200    -1.2260    -0.1870 C.3   1 <1>   0.1200 
 11 C        2.8420     0.7590     1.0410 C.3   1 <1>   0.1200 
 12 C       -3.3530    -1.3030    -1.1040 C.3   1 <1>   0.1960 
 13 C       -3.5560     0.7470     0.1450 C.3   1 <1>   0.1960 
 14 O        3.2180    -0.5910     1.0460 O.3   1 <1>  -0.5600 
 15 N       -4.2390    -0.4880    -0.2650 N.am  1 <1>  -0.8490 
 16 S       -5.6990    -0.1770    -1.0500 S.o2  1 <1>   1.5760 
 17 O       -6.2960    -1.4410    -1.4200 O.2   1 <1>  -0.6500 
 18 O       -5.4270     0.8160    -2.0640 O.2   1 <1>  -0.6500 
 19 N       -6.5920     0.5140     0.2170 N.am  1 <1>  -0.8490 
 20 C       -7.3280    -0.4590     1.0340 C.3   1 <1>   0.1960 
 21 C       -7.4730     1.5870    -0.2470 C.3   1 <1>   0.1960 
 22 C       -6.3870    -1.2790     1.9130 C.3   1 <1>  -0.2400 
 23 C       -6.7590     2.9240    -0.0740 C.3   1 <1>  -0.2400 
 24 H        1.4320    -1.5710    -1.5890 H     1 <1>   0.0800 
 25 H        0.9540    -1.7270     0.0820 H     1 <1>   0.0800 
 26 H        0.7550     0.4740     1.4420 H     1 <1>   0.0800 
 27 H        1.1160     1.9520     0.5880 H     1 <1>   0.0800 
 28 H       -2.2720    -2.2330     0.4900 H     1 <1>   0.0800 
 29 H       -1.3950    -2.2110    -1.0020 H     1 <1>   0.0800 
 30 H       -1.7550     1.3430     1.1780 H     1 <1>   0.0800 
 31 H       -2.4940    -0.0960     1.7970 H     1 <1>   0.0800 
 32 H        3.6460    -0.7520    -0.9230 H     1 <1>   0.0800 
 33 H        3.3230    -2.2520    -0.0810 H     1 <1>   0.0800 
 34 H        3.0160     1.1530     2.0260 H     1 <1>   0.0800 
 35 H        3.4630     1.2870     0.3390 H     1 <1>   0.0800 
 36 H       -3.8440    -2.2310    -1.3450 H     1 <1>   0.0800 
 37 H       -3.1460    -0.7930    -2.0300 H     1 <1>   0.0800 
 38 H       -3.3500     1.3660    -0.7130 H     1 <1>   0.0800 
 39 H       -4.1950     1.3080     0.8050 H     1 <1>   0.0800 
 40 H       -7.9250    -1.1050     0.4120 H     1 <1>   0.0800 
 41 H       -7.9950     0.0680     1.6970 H     1 <1>   0.0800 
 42 H       -8.3790     1.6200     0.3360 H     1 <1>   0.0800 
 43 H       -7.7560     1.4360    -1.2770 H     1 <1>   0.0800 
 44 H       -5.8150    -1.9690     1.3200 H     1 <1>   0.0800 
 45 H       -6.9610    -1.8500     2.6190 H     1 <1>   0.0800 
 46 H       -5.7220    -0.6300     2.4540 H     1 <1>   0.0800 
 47 H       -6.4870     3.0680     0.9550 H     1 <1>   0.0800 
 48 H       -7.4140     3.7230    -0.3710 H     1 <1>   0.0800 
 49 H       -5.8770     2.9690    -0.6870 H     1 <1>   0.0800 
@<TRIPOS>BOND
  1   1   2  2   
  2   1   3  2   
  3   1   4  am  
  4   1   5  am  
  5   4   6  1   
  6   4   7  1   
  7   5   8  1   
  8   5   9  1   
  9   6  10  1   
 10   6  24  1   
 11   6  25  1   
 12   7  11  1   
 13   7  26  1   
 14   7  27  1   
 15   8  12  1   
 16   8  28  1   
 17   8  29  1   
 18   9  13  1   
 19   9  30  1   
 20   9  31  1   
 21  10  14  1   
 22  10  32  1   
 23  10  33  1   
 24  11  14  1   
 25  11  34  1   
 26  11  35  1   
 27  12  15  1   
 28  12  36  1   
 29  12  37  1   
 30  13  15  1   
 31  13  38  1   
 32  13  39  1   
 33  15  16  am  
 34  16  17  2   
 35  16  18  2   
 36  16  19  am  
 37  19  20  1   
 38  19  21  1   
 39  20  22  1   
 40  20  40  1   
 41  20  41  1   
 42  21  23  1   
 43  21  42  1   
 44  21  43  1   
 45  22  44  1   
 46  22  45  1   
 47  22  46  1   
 48  23  47  1   
 49  23  48  1   
 50  23  49  1   
@<TRIPOS>SUBSTRUCTURE
  1 ****   9 GROUP 4 **** **** 0

# MOE 2024.06 (io_trps.svl 2023.06)
