@<TRIPOS>MOLECULE
N-[1-(5-Mercapto-4-methyl-4H-[1,2,4]triazol-3-yl)-2-methyl-propyl]-benzamide
38 39 1 0 0 
SMALL
USER_CHARGES


@<TRIPOS>ATOM
  1 S       -0.8130     2.6720    -3.1940 S.3   1 <1>  -0.9360 
  2 C       -0.8900     3.3640    -1.7300 C.cat 1 <1>   0.7360 
  3 N        0.1400     3.6390    -0.9630 N.pl3 1 <1>  -0.3930 
  4 N       -1.9920     3.7420    -1.1110 N.pl3 1 <1>  -0.7640 
  5 N       -0.2700     4.2220     0.2010 N.2   1 <1>  -0.2600 
  6 C       -1.5530     4.2740     0.0870 C.2   1 <1>   0.4850 
  7 C       -3.3320     3.5800    -1.7220 C.3   1 <1>   0.2740 
  8 C       -2.4920     4.8700     1.1560 C.3   1 <1>   0.3880 
  9 N       -2.2680     6.3350     1.3020 N.am  1 <1>  -0.7300 
 10 C       -2.3420     4.1730     2.5330 C.3   1 <1>  -0.0800 
 11 C       -2.4650     7.2500     0.3210 C.2   1 <1>   0.5440 
 12 C       -2.6060     2.6590     2.4340 C.3   1 <1>  -0.2400 
 13 C       -3.2880     4.7640     3.5960 C.3   1 <1>  -0.2400 
 14 O       -1.7880     8.2510     0.3790 O.2   1 <1>  -0.5700 
 15 C       -3.4050     7.0310    -0.7590 C.ar  1 <1>   0.0860 
 16 C       -4.7610     6.8240    -0.5090 C.ar  1 <1>  -0.1500 
 17 C       -2.9770     7.0020    -2.0850 C.ar  1 <1>  -0.1500 
 18 C       -5.6520     6.5800    -1.5390 C.ar  1 <1>  -0.1500 
 19 C       -3.8630     6.7570    -3.1190 C.ar  1 <1>  -0.1500 
 20 C       -5.2020     6.5430    -2.8470 C.ar  1 <1>  -0.1500 
 21 H        1.0920     3.4300    -1.2640 H     1 <1>   0.4500 
 22 H       -3.3160     3.9570    -2.7310 H     1 <1>   0.0800 
 23 H       -4.0810     4.1120    -1.1670 H     1 <1>   0.0800 
 24 H       -3.5870     2.5350    -1.7560 H     1 <1>   0.0800 
 25 H       -3.5040     4.7210     0.8320 H     1 <1>   0.0800 
 26 H       -1.5390     6.5940     1.9690 H     1 <1>   0.3700 
 27 H       -1.3280     4.3070     2.8710 H     1 <1>   0.0800 
 28 H       -3.6030     2.4650     2.0800 H     1 <1>   0.0800 
 29 H       -2.4960     2.1990     3.4010 H     1 <1>   0.0800 
 30 H       -1.9050     2.1830     1.7700 H     1 <1>   0.0800 
 31 H       -4.3150     4.6700     3.2890 H     1 <1>   0.0800 
 32 H       -3.0780     5.8060     3.7670 H     1 <1>   0.0800 
 33 H       -3.1650     4.2500     4.5330 H     1 <1>   0.0800 
 34 H       -5.1170     6.8640     0.5060 H     1 <1>   0.1500 
 35 H       -1.9360     7.1710    -2.3010 H     1 <1>   0.1500 
 36 H       -6.6970     6.4270    -1.3270 H     1 <1>   0.1500 
 37 H       -3.5080     6.7340    -4.1370 H     1 <1>   0.1500 
 38 H       -5.8920     6.3570    -3.6530 H     1 <1>   0.1500 
@<TRIPOS>BOND
  1   1   2  1   
  2   2   3  ar  
  3   2   4  ar  
  4   3   5  1   
  5   3  21  1   
  6   4   6  1   
  7   4   7  1   
  8   5   6  2   
  9   6   8  1   
 10   7  22  1   
 11   7  23  1   
 12   7  24  1   
 13   8   9  1   
 14   8  10  1   
 15   8  25  1   
 16   9  11  am  
 17   9  26  1   
 18  10  12  1   
 19  10  13  1   
 20  10  27  1   
 21  11  14  2   
 22  11  15  1   
 23  12  28  1   
 24  12  29  1   
 25  12  30  1   
 26  13  31  1   
 27  13  32  1   
 28  13  33  1   
 29  15  16  ar  
 30  15  17  ar  
 31  16  18  ar  
 32  16  34  1   
 33  17  19  ar  
 34  17  35  1   
 35  18  20  ar  
 36  18  36  1   
 37  19  20  ar  
 38  19  37  1   
 39  20  38  1   
@<TRIPOS>SUBSTRUCTURE
  1 ****   6 GROUP 4 **** **** 0

# MOE 2024.06 (io_trps.svl 2023.06)
