@<TRIPOS>MOLECULE
N-(4,6-Dimethyl-pyrimidin-2-yl)-N'-[2-(1H-indol-3-yl)-ethyl]-N''-propionyl-guani
52 54 1 0 0 
SMALL
USER_CHARGES


@<TRIPOS>ATOM
  1 O       -0.5470    -1.0380    -1.0240 O.2   1 <1>  -0.5700 
  2 C       -0.5830    -2.0760    -1.6240 C.2   1 <1>   0.8520 
  3 N        0.4820    -2.9190    -1.6520 N.pl3 1 <1>  -0.8600 
  4 C       -1.8280    -2.4420    -2.4160 C.3   1 <1>  -0.0990 
  5 C        1.6770    -2.7840    -1.1270 C.cat 1 <1>   1.2000 
  6 C       -2.3960    -3.8390    -2.1160 C.3   1 <1>  -0.2400 
  7 N        1.9590    -1.7600    -0.3780 N.pl3 1 <1>  -0.8280 
  8 N        2.5760    -3.7000    -1.3800 N.pl3 1 <1>  -0.8440 
  9 C        3.0140    -1.3980     0.3730 C.ar  1 <1>   0.9310 
 10 C        2.5400    -4.9600    -2.1700 C.3   1 <1>   0.1680 
 11 N        4.0820    -2.1840     0.3980 N.ar  1 <1>  -0.6200 
 12 N        2.8220    -0.2680     1.0150 N.ar  1 <1>  -0.6200 
 13 C        2.2730    -6.1710    -1.2680 C.3   1 <1>   0.0210 
 14 C        5.0650    -1.7690     1.1630 C.ar  1 <1>   0.1670 
 15 C        3.8150     0.1320     1.7730 C.ar  1 <1>   0.1670 
 16 C        0.8890    -6.1070    -0.6460 C.2   1 <1>  -0.1810 
 17 C        4.9750    -0.5980     1.8800 C.ar  1 <1>  -0.1500 
 18 C        6.3090    -2.6320     1.2270 C.3   1 <1>  -0.0970 
 19 C        3.6290     1.4330     2.5260 C.3   1 <1>  -0.0970 
 20 C        0.5500    -5.3940     0.5280 C.ar  1 <1>   0.0000 
 21 C       -0.2340    -6.7170    -1.0940 C.2   1 <1>  -0.3020 
 22 C       -0.8170    -5.5770     0.7130 C.ar  1 <1>  -0.1520 
 23 C        1.2680    -4.6200     1.4480 C.ar  1 <1>  -0.1500 
 24 N       -1.2780    -6.4180    -0.2660 N.pl3 1 <1>   0.0330 
 25 C       -1.4910    -4.9540     1.7650 C.ar  1 <1>  -0.1500 
 26 C        0.6050    -4.0050     2.4840 C.ar  1 <1>  -0.1500 
 27 C       -0.7770    -4.1660     2.6380 C.ar  1 <1>  -0.1500 
 28 H        0.3130    -3.8400    -2.0260 H     1 <1>   0.4500 
 29 H       -1.6000    -2.3630    -3.4630 H     1 <1>   0.0800 
 30 H       -2.5860    -1.7100    -2.1980 H     1 <1>   0.0800 
 31 H       -1.7090    -4.6070    -2.4200 H     1 <1>   0.0800 
 32 H       -3.3180    -3.9810    -2.6530 H     1 <1>   0.0800 
 33 H       -2.6000    -3.9380    -1.0630 H     1 <1>   0.0800 
 34 H        1.1960    -1.0970    -0.2590 H     1 <1>   0.4500 
 35 H        3.4640    -3.5220    -0.8930 H     1 <1>   0.4500 
 36 H        3.4890    -5.0890    -2.6660 H     1 <1>   0.0800 
 37 H        1.7800    -4.9070    -2.9310 H     1 <1>   0.0800 
 38 H        3.0220    -6.2420    -0.5000 H     1 <1>   0.0800 
 39 H        2.3380    -7.0640    -1.8640 H     1 <1>   0.0800 
 40 H        5.7840    -0.2640     2.5040 H     1 <1>   0.1500 
 41 H        6.7340    -2.7320     0.2450 H     1 <1>   0.0800 
 42 H        6.0560    -3.6080     1.5980 H     1 <1>   0.0800 
 43 H        7.0470    -2.1980     1.8770 H     1 <1>   0.0800 
 44 H        2.7790     1.3550     3.1800 H     1 <1>   0.0800 
 45 H        3.4540     2.2330     1.8290 H     1 <1>   0.0800 
 46 H        4.4970     1.6700     3.1130 H     1 <1>   0.0800 
 47 H       -0.3600    -7.3610    -1.9480 H     1 <1>   0.1500 
 48 H        2.3320    -4.5180     1.3410 H     1 <1>   0.1500 
 49 H       -2.2350    -6.7860    -0.3250 H     1 <1>   0.2700 
 50 H       -2.5500    -5.0950     1.8900 H     1 <1>   0.1500 
 51 H        1.1410    -3.4000     3.1940 H     1 <1>   0.1500 
 52 H       -1.2730    -3.6750     3.4580 H     1 <1>   0.1500 
@<TRIPOS>BOND
  1   1   2  2   
  2   2   3  1   
  3   2   4  1   
  4   3   5  ar  
  5   3  28  1   
  6   4   6  1   
  7   4  29  1   
  8   4  30  1   
  9   5   7  ar  
 10   5   8  ar  
 11   6  31  1   
 12   6  32  1   
 13   6  33  1   
 14   7   9  1   
 15   7  34  1   
 16   8  10  1   
 17   8  35  1   
 18   9  11  ar  
 19   9  12  ar  
 20  10  13  1   
 21  10  36  1   
 22  10  37  1   
 23  11  14  ar  
 24  12  15  ar  
 25  13  16  1   
 26  13  38  1   
 27  13  39  1   
 28  14  17  ar  
 29  14  18  1   
 30  15  17  ar  
 31  15  19  1   
 32  16  20  1   
 33  16  21  2   
 34  17  40  1   
 35  18  41  1   
 36  18  42  1   
 37  18  43  1   
 38  19  44  1   
 39  19  45  1   
 40  19  46  1   
 41  20  22  ar  
 42  20  23  ar  
 43  21  24  1   
 44  21  47  1   
 45  22  24  1   
 46  22  25  ar  
 47  23  26  ar  
 48  23  48  1   
 49  24  49  1   
 50  25  27  ar  
 51  25  50  1   
 52  26  27  ar  
 53  26  51  1   
 54  27  52  1   
@<TRIPOS>SUBSTRUCTURE
  1 ****   5 GROUP 4 **** **** 0

# MOE 2024.06 (io_trps.svl 2023.06)
