@<TRIPOS>MOLECULE
(2,4-Dioxo-1,3-diaza-spiro[4.5]dec-3-yl)-acetic acid
29 30 1 0 0 
SMALL
USER_CHARGES


@<TRIPOS>ATOM
  1 O       -1.4300    -1.0600    -2.6220 O.2   1 <1>  -0.5700 
  2 C       -2.1260    -1.1840    -1.6370 C.2   1 <1>   0.6900 
  3 N       -1.9510    -2.1250    -0.6590 N.am  1 <1>  -0.4200 
  4 N       -3.1840    -0.3830    -1.3930 N.am  1 <1>  -0.7300 
  5 C       -2.8900    -1.9300     0.3100 C.2   1 <1>   0.5690 
  6 C       -0.5910    -2.6480    -0.3170 C.3   1 <1>   0.0340 
  7 C       -3.7300    -0.6980    -0.0600 C.3   1 <1>   0.3610 
  8 O       -3.0760    -2.6320     1.2800 O.2   1 <1>  -0.5700 
  9 C        0.2630    -1.6620     0.4770 C.2   1 <1>   0.9060 
 10 C       -5.2310    -1.0160    -0.1880 C.3   1 <1>  -0.1600 
 11 C       -3.4900     0.4910     0.8870 C.3   1 <1>  -0.1600 
 12 O       -0.2020    -0.5610     0.8100 O.co2 1 <1>  -0.9000 
 13 O        1.4120    -2.0030     0.7750 O.co2 1 <1>  -0.9000 
 14 C       -6.0720     0.2200    -0.5520 C.3   1 <1>  -0.1600 
 15 C       -4.3390     1.7240     0.5310 C.3   1 <1>  -0.1600 
 16 C       -5.8290     1.3660     0.4400 C.3   1 <1>  -0.1600 
 17 H       -3.1040     0.5910    -1.6690 H     1 <1>   0.3700 
 18 H       -0.0630    -2.8870    -1.2200 H     1 <1>   0.0800 
 19 H       -0.6910    -3.5410     0.2690 H     1 <1>   0.0800 
 20 H       -5.5740    -1.4030     0.7560 H     1 <1>   0.0800 
 21 H       -5.3720    -1.7890    -0.9230 H     1 <1>   0.0800 
 22 H       -2.4440     0.7480     0.8870 H     1 <1>   0.0800 
 23 H       -3.7340     0.1770     1.8870 H     1 <1>   0.0800 
 24 H       -7.1160    -0.0430    -0.5500 H     1 <1>   0.0800 
 25 H       -5.8180     0.5460    -1.5460 H     1 <1>   0.0800 
 26 H       -4.0090     2.1290    -0.4100 H     1 <1>   0.0800 
 27 H       -4.1950     2.4830     1.2800 H     1 <1>   0.0800 
 28 H       -6.1830     1.0740     1.4140 H     1 <1>   0.0800 
 29 H       -6.3890     2.2330     0.1330 H     1 <1>   0.0800 
@<TRIPOS>BOND
  1   1   2  2   
  2   2   3  am  
  3   2   4  am  
  4   3   5  am  
  5   3   6  1   
  6   4   7  1   
  7   4  17  1   
  8   5   7  1   
  9   5   8  2   
 10   6   9  1   
 11   6  18  1   
 12   6  19  1   
 13   7  10  1   
 14   7  11  1   
 15   9  12  ar  
 16   9  13  ar  
 17  10  14  1   
 18  10  20  1   
 19  10  21  1   
 20  11  15  1   
 21  11  22  1   
 22  11  23  1   
 23  14  16  1   
 24  14  24  1   
 25  14  25  1   
 26  15  16  1   
 27  15  26  1   
 28  15  27  1   
 29  16  28  1   
 30  16  29  1   
@<TRIPOS>SUBSTRUCTURE
  1 ****   7 GROUP 4 **** **** 0

# MOE 2024.06 (io_trps.svl 2023.06)
