@<TRIPOS>MOLECULE
N-(5-Methyl-isoxazol-3-yl)-2-(4-methyl-piperazin-1-yl)-acetamide
36 37 1 0 0 
SMALL
USER_CHARGES


@<TRIPOS>ATOM
  1 O       -0.1870    -0.1790    -0.8550 O.2   1 <1>  -0.5700 
  2 C       -0.0890    -1.2370    -0.2750 C.2   1 <1>   0.5690 
  3 N        1.1000    -1.7030     0.2000 N.am  1 <1>  -0.4930 
  4 C       -1.3410    -2.1070    -0.0450 C.3   1 <1>   0.1710 
  5 C        2.3710    -1.1320     0.1420 C.2   1 <1>   0.3520 
  6 N       -2.6570    -1.4040    -0.1120 N.3   1 <1>  -0.8100 
  7 N        3.3780    -1.7100     0.6940 N.2   1 <1>  -0.4100 
  8 C        2.7610     0.0610    -0.4680 C.2   1 <1>  -0.1500 
  9 C       -3.8180    -2.3230    -0.0760 C.3   1 <1>   0.1100 
 10 C       -2.8020    -0.3270     0.9010 C.3   1 <1>   0.1100 
 11 O        4.4090    -0.9360     0.4670 O.3   1 <1>  -0.0190 
 12 C        4.0760     0.1250    -0.2210 C.2   1 <1>  -0.0400 
 13 C       -5.1630    -1.5650    -0.2280 C.3   1 <1>   0.3430 
 14 C       -4.1230     0.4630     0.7240 C.3   1 <1>   0.3430 
 15 C        5.1270     1.1490    -0.5910 C.3   1 <1>  -0.0600 
 16 N       -4.9380    -0.0920    -0.4080 N.4   1 <1>  -0.9590 
 17 C       -6.1830     0.6810    -0.6820 C.3   1 <1>   0.2630 
 18 H        1.1180    -2.6020     0.6750 H     1 <1>   0.3700 
 19 H       -1.2520    -2.5880     0.9130 H     1 <1>   0.0800 
 20 H       -1.3280    -2.8740    -0.7990 H     1 <1>   0.0800 
 21 H        2.1260     0.7430    -1.0020 H     1 <1>   0.1500 
 22 H       -3.8230    -2.8740     0.8500 H     1 <1>   0.0800 
 23 H       -3.7320    -3.0360    -0.8780 H     1 <1>   0.0800 
 24 H       -1.9840     0.3690     0.8170 H     1 <1>   0.0800 
 25 H       -2.7670    -0.7460     1.8920 H     1 <1>   0.0800 
 26 H       -5.7690    -1.7400     0.6450 H     1 <1>   0.0800 
 27 H       -5.6910    -1.9620    -1.0790 H     1 <1>   0.0800 
 28 H       -3.8840     1.4960     0.5300 H     1 <1>   0.0800 
 29 H       -4.6860     0.4230     1.6420 H     1 <1>   0.0800 
 30 H        4.6830     1.9500    -1.1540 H     1 <1>   0.0800 
 31 H        5.8930     0.6860    -1.1860 H     1 <1>   0.0800 
 32 H        5.5720     1.5520     0.3010 H     1 <1>   0.0800 
 33 H       -4.2860    -0.0390    -1.2120 H     1 <1>   0.4500 
 34 H       -6.8510     0.6260     0.1620 H     1 <1>   0.0800 
 35 H       -6.6850     0.2830    -1.5490 H     1 <1>   0.0800 
 36 H       -5.9450     1.7160    -0.8700 H     1 <1>   0.0800 
@<TRIPOS>BOND
  1   1   2  2   
  2   2   3  am  
  3   2   4  1   
  4   3   5  1   
  5   3  18  1   
  6   4   6  1   
  7   4  19  1   
  8   4  20  1   
  9   5   7  2   
 10   5   8  1   
 11   6   9  1   
 12   6  10  1   
 13   7  11  1   
 14   8  12  2   
 15   8  21  1   
 16   9  13  1   
 17   9  22  1   
 18   9  23  1   
 19  10  14  1   
 20  10  24  1   
 21  10  25  1   
 22  11  12  1   
 23  12  15  1   
 24  13  16  1   
 25  13  26  1   
 26  13  27  1   
 27  14  16  1   
 28  14  28  1   
 29  14  29  1   
 30  15  30  1   
 31  15  31  1   
 32  15  32  1   
 33  16  17  1   
 34  16  33  1   
 35  17  34  1   
 36  17  35  1   
 37  17  36  1   
@<TRIPOS>SUBSTRUCTURE
  1 ****   2 GROUP 4 **** **** 0

# MOE 2024.06 (io_trps.svl 2023.06)
