@<TRIPOS>MOLECULE
5-Methyl-2-(5-methyl-isoxazol-3-yl)-3a,4,7,7a-tetrahydro-isoindole-1,3-dione
32 34 1 0 0 
SMALL
USER_CHARGES


@<TRIPOS>ATOM
  1 O        0.2680     0.2740    -0.2450 O.2   1 <1>  -0.5700 
  2 C        0.8490     1.3080    -0.4570 C.2   1 <1>   0.5690 
  3 N        2.2010     1.4950    -0.4820 N.am  1 <1>  -0.1830 
  4 C        0.1110     2.6100    -0.6970 C.3   1 <1>  -0.0190 
  5 C        3.1610     0.4730    -0.4360 C.2   1 <1>   0.3520 
  6 C        2.5030     2.8120    -0.6540 C.2   1 <1>   0.5690 
  7 C        1.2520     3.6480    -0.8280 C.3   1 <1>  -0.0190 
  8 C       -0.9460     2.8900     0.3880 C.3   1 <1>  -0.0220 
  9 N        3.1740    -0.5540    -1.2170 N.2   1 <1>  -0.4100 
 10 C        4.2470     0.4340     0.4400 C.2   1 <1>  -0.1500 
 11 O        3.6090     3.2910    -0.6640 O.2   1 <1>  -0.5700 
 12 C        1.2040     4.8390     0.1470 C.3   1 <1>  -0.0220 
 13 C       -1.2170     4.3800     0.5140 C.2   1 <1>  -0.2760 
 14 O        4.2200    -1.2580    -0.8720 O.3   1 <1>  -0.0190 
 15 C        4.8810    -0.6980     0.1070 C.2   1 <1>  -0.0400 
 16 C       -0.2270     5.2650     0.4040 C.2   1 <1>  -0.2880 
 17 C       -2.6600     4.7540     0.8040 C.3   1 <1>  -0.1020 
 18 C        6.1320    -1.3580     0.6460 C.3   1 <1>  -0.0600 
 19 H       -0.3930     2.5370    -1.6450 H     1 <1>   0.0800 
 20 H        1.2450     4.0360    -1.8320 H     1 <1>   0.0800 
 21 H       -0.6110     2.5260     1.3440 H     1 <1>   0.0800 
 22 H       -1.8470     2.3570     0.1360 H     1 <1>   0.0800 
 23 H        4.4840     1.1690     1.1860 H     1 <1>   0.1500 
 24 H        1.7650     5.6580    -0.2710 H     1 <1>   0.0800 
 25 H        1.6560     4.5780     1.0890 H     1 <1>   0.0800 
 26 H       -0.3570     6.3300     0.5090 H     1 <1>   0.1500 
 27 H       -2.9850     4.2940     1.7210 H     1 <1>   0.0800 
 28 H       -3.2990     4.4250     0.0030 H     1 <1>   0.0800 
 29 H       -2.7610     5.8200     0.9040 H     1 <1>   0.0800 
 30 H        6.5510    -0.7680     1.4420 H     1 <1>   0.0800 
 31 H        6.8600    -1.4530    -0.1390 H     1 <1>   0.0800 
 32 H        5.8950    -2.3360     1.0230 H     1 <1>   0.0800 
@<TRIPOS>BOND
  1   1   2  2   
  2   2   3  am  
  3   2   4  1   
  4   3   5  1   
  5   3   6  am  
  6   4   7  1   
  7   4   8  1   
  8   4  19  1   
  9   5   9  2   
 10   5  10  1   
 11   6   7  1   
 12   6  11  2   
 13   7  12  1   
 14   7  20  1   
 15   8  13  1   
 16   8  21  1   
 17   8  22  1   
 18   9  14  1   
 19  10  15  2   
 20  10  23  1   
 21  12  16  1   
 22  12  24  1   
 23  12  25  1   
 24  13  16  2   
 25  13  17  1   
 26  14  15  1   
 27  15  18  1   
 28  16  26  1   
 29  17  27  1   
 30  17  28  1   
 31  17  29  1   
 32  18  30  1   
 33  18  31  1   
 34  18  32  1   
@<TRIPOS>SUBSTRUCTURE
  1 ****   3 GROUP 4 **** **** 0

# MOE 2024.06 (io_trps.svl 2023.06)
