@<TRIPOS>MOLECULE
N-Benzothiazol-2-yl-3-ethoxy-propionamide
31 32 1 0 0 
SMALL
USER_CHARGES


@<TRIPOS>ATOM
  1 S       -0.2580     0.3860    -0.8820 S.3   1 <1>  -0.0800 
  2 C        0.1450    -1.2230    -0.2660 C.2   1 <1>   0.4420 
  3 C        1.2740     0.9860    -0.2900 C.ar  1 <1>   0.0400 
  4 N        1.2830    -1.2950     0.3100 N.2   1 <1>  -0.5650 
  5 N       -0.7150    -2.2850    -0.4080 N.am  1 <1>  -0.4940 
  6 C        1.9360    -0.0690     0.3090 C.ar  1 <1>   0.2270 
  7 C        1.7860     2.2660    -0.3730 C.ar  1 <1>  -0.1500 
  8 C       -1.9490    -2.3990    -0.9800 C.2   1 <1>   0.5690 
  9 C        3.1880     0.1760     0.8570 C.ar  1 <1>  -0.1500 
 10 C        3.0360     2.4910     0.1800 C.ar  1 <1>  -0.1500 
 11 O       -2.5320    -1.4880    -1.5080 O.2   1 <1>  -0.5700 
 12 C       -2.6200    -3.7530    -0.9360 C.3   1 <1>  -0.0990 
 13 C        3.7320     1.4490     0.7910 C.ar  1 <1>  -0.1500 
 14 C       -3.9730    -3.6530    -0.2400 C.3   1 <1>   0.1200 
 15 O       -4.4700    -4.9420    -0.1010 O.3   1 <1>  -0.5600 
 16 C       -5.7350    -4.9990     0.4690 C.3   1 <1>   0.1200 
 17 C       -6.1300    -6.4670     0.5620 C.3   1 <1>  -0.2400 
 18 H       -0.3330    -3.1340    -0.0020 H     1 <1>   0.3700 
 19 H        1.2290     3.0520    -0.8510 H     1 <1>   0.1500 
 20 H        3.7180    -0.6320     1.3270 H     1 <1>   0.1500 
 21 H        3.4740     3.4740     0.1380 H     1 <1>   0.1500 
 22 H       -2.0020    -4.4570    -0.4110 H     1 <1>   0.0800 
 23 H       -2.7640    -4.0970    -1.9430 H     1 <1>   0.0800 
 24 H        4.7020     1.6380     1.2170 H     1 <1>   0.1500 
 25 H       -4.6600    -3.0700    -0.8320 H     1 <1>   0.0800 
 26 H       -3.8690    -3.2150     0.7380 H     1 <1>   0.0800 
 27 H       -6.4240    -4.4590    -0.1590 H     1 <1>   0.0800 
 28 H       -5.6980    -4.5520     1.4480 H     1 <1>   0.0800 
 29 H       -6.1520    -6.9060    -0.4190 H     1 <1>   0.0800 
 30 H       -7.1070    -6.5550     1.0000 H     1 <1>   0.0800 
 31 H       -5.4270    -6.9990     1.1780 H     1 <1>   0.0800 
@<TRIPOS>BOND
  1   1   2  1   
  2   1   3  1   
  3   2   4  2   
  4   2   5  1   
  5   3   6  ar  
  6   3   7  ar  
  7   4   6  1   
  8   5   8  am  
  9   5  18  1   
 10   6   9  ar  
 11   7  10  ar  
 12   7  19  1   
 13   8  11  2   
 14   8  12  1   
 15   9  13  ar  
 16   9  20  1   
 17  10  13  ar  
 18  10  21  1   
 19  12  14  1   
 20  12  22  1   
 21  12  23  1   
 22  13  24  1   
 23  14  15  1   
 24  14  25  1   
 25  14  26  1   
 26  15  16  1   
 27  16  17  1   
 28  16  27  1   
 29  16  28  1   
 30  17  29  1   
 31  17  30  1   
 32  17  31  1   
@<TRIPOS>SUBSTRUCTURE
  1 ****   5 GROUP 4 **** **** 0

# MOE 2024.06 (io_trps.svl 2023.06)
