@<TRIPOS>MOLECULE
(1-Methyl-2,4-dioxo-8-o-tolyl-1,4,5,6,7,8-hexahydro-2H-1,3,4b,8,9-pentaaza-fluor
50 53 1 0 0 
SMALL
USER_CHARGES


@<TRIPOS>ATOM
  1 O        1.0660     1.3300    -2.3640 O.2   1 <1>  -0.5750 
  2 C        1.9840     1.8670    -1.7800 C.2   1 <1>   0.6860 
  3 N        1.8530     3.1810    -1.3510 N.am  1 <1>  -0.4260 
  4 N        3.1590     1.1670    -1.5390 N.am  1 <1>  -0.4420 
  5 C        2.8760     3.8210    -0.6710 C.2   1 <1>   0.6990 
  6 C        0.4730     3.7660    -1.2560 C.3   1 <1>   0.1940 
  7 C        4.1500     1.7950    -0.8070 C.2   1 <1>   0.4200 
  8 C        3.3090    -0.2500    -1.9830 C.3   1 <1>   0.0520 
  9 O        2.7670     4.9930    -0.3490 O.2   1 <1>  -0.5750 
 10 C        4.0560     3.0710    -0.3720 C.2   1 <1>   0.2700 
 11 C       -0.1800     3.4390     0.0840 C.2   1 <1>   0.6550 
 12 N        5.3470     1.2850    -0.4040 N.pl3 1 <1>  -0.7040 
 13 N        5.2470     3.3350     0.3200 N.pl3 1 <1>  -0.7670 
 14 O        0.4260     2.8770     0.9660 O.2   1 <1>  -0.5750 
 15 O       -1.4450     3.8140     0.2190 O.3   1 <1>  -0.4360 
 16 C        5.9870     2.2350     0.2750 C.cat 1 <1>   1.0690 
 17 C        5.6270     4.5760     1.0230 C.3   1 <1>   0.3480 
 18 C       -2.1720     3.5740     1.4060 C.3   1 <1>   0.0320 
 19 N        7.2000     2.1380     0.8460 N.pl3 1 <1>  -0.5800 
 20 C        6.6770     4.2320     2.0860 C.3   1 <1>  -0.1670 
 21 C        7.9780     0.9780     0.7620 C.ar  1 <1>   0.3050 
 22 C        7.7850     3.3170     1.5420 C.3   1 <1>   0.1600 
 23 C        8.7070     0.6690    -0.3890 C.ar  1 <1>  -0.1510 
 24 C        7.9980     0.1030     1.8410 C.ar  1 <1>  -0.1570 
 25 C        9.4240    -0.5160    -0.4400 C.ar  1 <1>  -0.1570 
 26 C        8.7480     1.5990    -1.5980 C.3   1 <1>  -0.1040 
 27 C        8.7180    -1.0740     1.7810 C.ar  1 <1>  -0.1570 
 28 C        9.4280    -1.3840     0.6370 C.ar  1 <1>  -0.1570 
 29 H       -0.1500     3.3870    -2.0460 H     1 <1>   0.0720 
 30 H        0.5190     4.8340    -1.3650 H     1 <1>   0.0720 
 31 H        2.6690    -0.4500    -2.8260 H     1 <1>   0.0720 
 32 H        3.0360    -0.9120    -1.1800 H     1 <1>   0.0720 
 33 H        4.3240    -0.4450    -2.2810 H     1 <1>   0.0720 
 34 H        5.7200     0.3500    -0.5530 H     1 <1>   0.4450 
 35 H        4.7620     5.0210     1.4870 H     1 <1>   0.0720 
 36 H        6.0310     5.2770     0.3100 H     1 <1>   0.0720 
 37 H       -3.1640     3.9700     1.2840 H     1 <1>   0.0720 
 38 H       -1.6750     4.0640     2.2250 H     1 <1>   0.0720 
 39 H       -2.2160     2.5120     1.5790 H     1 <1>   0.0720 
 40 H        6.1930     3.7490     2.9170 H     1 <1>   0.0720 
 41 H        7.1130     5.1410     2.4600 H     1 <1>   0.0720 
 42 H        8.4020     3.8610     0.8470 H     1 <1>   0.0720 
 43 H        8.4110     2.9860     2.3550 H     1 <1>   0.0720 
 44 H        7.4480     0.3410     2.7340 H     1 <1>   0.1430 
 45 H        9.9930    -0.7760    -1.3180 H     1 <1>   0.1430 
 46 H        7.8090     1.5820    -2.1210 H     1 <1>   0.0720 
 47 H        9.5190     1.2970    -2.2860 H     1 <1>   0.0720 
 48 H        8.9630     2.6070    -1.2910 H     1 <1>   0.0720 
 49 H        8.7320    -1.7500     2.6210 H     1 <1>   0.1430 
 50 H        9.9920    -2.3020     0.5860 H     1 <1>   0.1430 
@<TRIPOS>BOND
  1   1   2  2   
  2   2   3  am  
  3   2   4  am  
  4   3   5  am  
  5   3   6  1   
  6   4   7  1   
  7   4   8  1   
  8   5   9  2   
  9   5  10  1   
 10   6  11  1   
 11   6  29  1   
 12   6  30  1   
 13   7  10  2   
 14   7  12  1   
 15   8  31  1   
 16   8  32  1   
 17   8  33  1   
 18  10  13  1   
 19  11  14  2   
 20  11  15  1   
 21  12  16  ar  
 22  12  34  1   
 23  13  16  ar  
 24  13  17  1   
 25  15  18  1   
 26  16  19  ar  
 27  17  20  1   
 28  17  35  1   
 29  17  36  1   
 30  18  37  1   
 31  18  38  1   
 32  18  39  1   
 33  19  21  1   
 34  19  22  1   
 35  20  22  1   
 36  20  40  1   
 37  20  41  1   
 38  21  23  ar  
 39  21  24  ar  
 40  22  42  1   
 41  22  43  1   
 42  23  25  ar  
 43  23  26  1   
 44  24  27  ar  
 45  24  44  1   
 46  25  28  ar  
 47  25  45  1   
 48  26  46  1   
 49  26  47  1   
 50  26  48  1   
 51  27  28  ar  
 52  27  49  1   
 53  28  50  1   
@<TRIPOS>SUBSTRUCTURE
  1 ****   7 GROUP 4 **** **** 0

# MOE 2024.06 (io_trps.svl 2023.06)
