@<TRIPOS>MOLECULE
2,9-Dimethyl-5-(4-morpholin-4-yl-phenyl)-5,6-dihydro-pyrazolo[1,5-c]quinazoline
51 55 1 0 0 
SMALL
USER_CHARGES


@<TRIPOS>ATOM
  1 O        1.0270     0.2650    -0.5510 O.3   1 <1>  -0.5600 
  2 C        1.2540     1.3810    -1.3690 C.3   1 <1>   0.1200 
  3 C        2.2000    -0.4280    -0.2210 C.3   1 <1>   0.1200 
  4 C        2.1880     2.3910    -0.6790 C.3   1 <1>   0.2090 
  5 C        3.1840     0.4830     0.5360 C.3   1 <1>   0.2090 
  6 N        3.4510     1.7320    -0.2350 N.pl3 1 <1>  -0.8380 
  7 C        4.4250     2.5830     0.2710 C.ar  1 <1>   0.1000 
  8 C        5.5550     2.8560    -0.4850 C.ar  1 <1>  -0.1500 
  9 C        4.2980     3.1830     1.5180 C.ar  1 <1>  -0.1500 
 10 C        6.5370     3.7050    -0.0110 C.ar  1 <1>  -0.1500 
 11 C        5.2780     4.0320     1.9980 C.ar  1 <1>  -0.1500 
 12 C        6.4100     4.3000     1.2390 C.ar  1 <1>  -0.1430 
 13 C        7.4960     5.2300     1.7790 C.3   1 <1>   0.6880 
 14 N        7.5970     6.4930     0.9710 N.pl3 1 <1>   0.3140 
 15 N        8.7810     4.4540     1.8200 N.pl3 1 <1>  -0.8690 
 16 N        6.6570     7.4720     0.9460 N.2   1 <1>  -0.7070 
 17 C        8.6720     6.8060     0.2070 C.2   1 <1>  -0.2050 
 18 C        9.8190     4.7600     0.9350 C.ar  1 <1>   0.1000 
 19 C        7.1460     8.3700     0.1510 C.2   1 <1>   0.1080 
 20 C        9.7980     5.9120     0.1290 C.ar  1 <1>   0.0530 
 21 C        8.3920     8.0170    -0.3410 C.2   1 <1>  -0.1500 
 22 C       10.9000     3.8940     0.8500 C.ar  1 <1>  -0.1500 
 23 C        6.4050     9.6450    -0.1720 C.3   1 <1>  -0.0590 
 24 C       10.8660     6.1510    -0.7300 C.ar  1 <1>  -0.1500 
 25 C       11.9510     4.1480    -0.0110 C.ar  1 <1>  -0.1500 
 26 C       11.9390     5.2810    -0.8080 C.ar  1 <1>  -0.1430 
 27 C       13.0990     5.5520    -1.7480 C.3   1 <1>  -0.0970 
 28 H        0.3020     1.8370    -1.5740 H     1 <1>   0.0800 
 29 H        1.6860     1.0470    -2.2960 H     1 <1>   0.0800 
 30 H        2.6520    -0.7920    -1.1280 H     1 <1>   0.0800 
 31 H        1.9250    -1.2670     0.3910 H     1 <1>   0.0800 
 32 H        1.6840     2.8190     0.1700 H     1 <1>   0.0800 
 33 H        2.4260     3.1870    -1.3630 H     1 <1>   0.0800 
 34 H        4.1100    -0.0400     0.6930 H     1 <1>   0.0800 
 35 H        2.7670     0.7280     1.4970 H     1 <1>   0.0800 
 36 H        5.6500     2.3950    -1.4510 H     1 <1>   0.1500 
 37 H        3.4220     2.9850     2.1070 H     1 <1>   0.1500 
 38 H        7.4030     3.9040    -0.6200 H     1 <1>   0.1500 
 39 H        5.1490     4.4870     2.9650 H     1 <1>   0.1500 
 40 H        7.2450     5.5220     2.7820 H     1 <1>   0.0800 
 41 H        8.5670     3.4570     1.8930 H     1 <1>   0.4000 
 42 H        8.9970     8.5990    -1.0110 H     1 <1>   0.1500 
 43 H       10.9200     3.0160     1.4690 H     1 <1>   0.1500 
 44 H        5.4640     9.4040    -0.6310 H     1 <1>   0.0800 
 45 H        6.9800    10.2560    -0.8430 H     1 <1>   0.0800 
 46 H        6.2210    10.1910     0.7340 H     1 <1>   0.0800 
 47 H       10.8470     7.0320    -1.3440 H     1 <1>   0.1500 
 48 H       12.7800     3.4640    -0.0590 H     1 <1>   0.1500 
 49 H       12.9300     6.4470    -2.3200 H     1 <1>   0.0800 
 50 H       13.2190     4.7280    -2.4290 H     1 <1>   0.0800 
 51 H       14.0060     5.6730    -1.1840 H     1 <1>   0.0800 
@<TRIPOS>BOND
  1   1   2  1   
  2   1   3  1   
  3   2   4  1   
  4   2  28  1   
  5   2  29  1   
  6   3   5  1   
  7   3  30  1   
  8   3  31  1   
  9   4   6  1   
 10   4  32  1   
 11   4  33  1   
 12   5   6  1   
 13   5  34  1   
 14   5  35  1   
 15   6   7  1   
 16   7   8  ar  
 17   7   9  ar  
 18   8  10  ar  
 19   8  36  1   
 20   9  11  ar  
 21   9  37  1   
 22  10  12  ar  
 23  10  38  1   
 24  11  12  ar  
 25  11  39  1   
 26  12  13  1   
 27  13  14  1   
 28  13  15  1   
 29  13  40  1   
 30  14  16  1   
 31  14  17  1   
 32  15  18  1   
 33  15  41  1   
 34  16  19  2   
 35  17  20  1   
 36  17  21  2   
 37  18  20  ar  
 38  18  22  ar  
 39  19  21  1   
 40  19  23  1   
 41  20  24  ar  
 42  21  42  1   
 43  22  25  ar  
 44  22  43  1   
 45  23  44  1   
 46  23  45  1   
 47  23  46  1   
 48  24  26  ar  
 49  24  47  1   
 50  25  26  ar  
 51  25  48  1   
 52  26  27  1   
 53  27  49  1   
 54  27  50  1   
 55  27  51  1   
@<TRIPOS>SUBSTRUCTURE
  1 ****  10 GROUP 4 **** **** 0

# MOE 2024.06 (io_trps.svl 2023.06)
