@<TRIPOS>MOLECULE
N-{4-[3-(3,5-Dimethyl-[1,2,4]triazol-1-yl)-2-hydroxy-propoxy]-phenyl}-acetamide
43 44 1 0 0 
SMALL
USER_CHARGES


@<TRIPOS>ATOM
  1 O       -0.2240     0.3360    -0.9210 O.2   1 <1>  -0.5700 
  2 C        0.6680     0.9230    -0.3640 C.2   1 <1>   0.5690 
  3 N        0.6030     2.2290     0.0280 N.am  1 <1>  -0.5470 
  4 C        1.9420     0.1740    -0.0620 C.3   1 <1>  -0.1790 
  5 C       -0.4240     3.1750    -0.1260 C.ar  1 <1>   0.1170 
  6 C       -1.3640     3.1050    -1.1490 C.ar  1 <1>  -0.1500 
  7 C       -0.4990     4.2370     0.7670 C.ar  1 <1>  -0.1500 
  8 C       -2.3560     4.0610    -1.2670 C.ar  1 <1>  -0.1500 
  9 C       -1.4880     5.1990     0.6550 C.ar  1 <1>  -0.1500 
 10 C       -2.4300     5.1090    -0.3660 C.ar  1 <1>   0.0830 
 11 O       -3.4430     5.9970    -0.5400 O.3   1 <1>  -0.3630 
 12 C       -3.7480     6.9480     0.4560 C.3   1 <1>   0.1200 
 13 C       -5.0440     7.6570     0.0530 C.3   1 <1>   0.2000 
 14 O       -5.4590     8.4830     1.1000 O.3   1 <1>  -0.6800 
 15 C       -6.1500     6.6550    -0.3630 C.3   1 <1>   0.3540 
 16 N       -7.5400     7.1910    -0.2350 N.pl3 1 <1>  -0.4570 
 17 N       -8.4840     6.4740     0.4290 N.2   1 <1>  -0.2600 
 18 C       -8.0580     8.3290    -0.6660 C.cat 1 <1>   0.6560 
 19 C       -9.5370     7.2070     0.3770 C.2   1 <1>   0.4850 
 20 N       -9.3140     8.3620    -0.2930 N.pl3 1 <1>  -0.7000 
 21 C       -7.3760     9.4250    -1.4550 C.3   1 <1>  -0.0960 
 22 C      -10.8830     6.8630     0.9750 C.3   1 <1>  -0.0720 
 23 H        1.4130     2.5600     0.5470 H     1 <1>   0.3700 
 24 H        2.7770     0.6760    -0.5140 H     1 <1>   0.0800 
 25 H        1.8790    -0.8220    -0.4620 H     1 <1>   0.0800 
 26 H        2.0860     0.1130     1.0000 H     1 <1>   0.0800 
 27 H       -1.3240     2.3000    -1.8610 H     1 <1>   0.1500 
 28 H        0.2210     4.3130     1.5610 H     1 <1>   0.1500 
 29 H       -3.0750     3.9900    -2.0630 H     1 <1>   0.1500 
 30 H       -1.5040     6.0030     1.3660 H     1 <1>   0.1500 
 31 H       -2.9340     7.6500     0.5160 H     1 <1>   0.0800 
 32 H       -3.8710     6.4250     1.3890 H     1 <1>   0.0800 
 33 H       -4.8230     8.3010    -0.7790 H     1 <1>   0.0800 
 34 H       -5.6220     7.9740     1.9220 H     1 <1>   0.4000 
 35 H       -6.0680     5.7750     0.2530 H     1 <1>   0.0800 
 36 H       -5.9810     6.3390    -1.3780 H     1 <1>   0.0800 
 37 H       -9.9960     9.1010    -0.4590 H     1 <1>   0.4500 
 38 H       -6.7440     8.9980    -2.2120 H     1 <1>   0.0800 
 39 H       -6.7820    10.0300    -0.7960 H     1 <1>   0.0800 
 40 H       -8.1070    10.0500    -1.9330 H     1 <1>   0.0800 
 41 H      -10.8350     5.9030     1.4580 H     1 <1>   0.0800 
 42 H      -11.6290     6.8230     0.2030 H     1 <1>   0.0800 
 43 H      -11.1620     7.6020     1.7030 H     1 <1>   0.0800 
@<TRIPOS>BOND
  1   1   2  2   
  2   2   3  am  
  3   2   4  1   
  4   3   5  1   
  5   3  23  1   
  6   4  24  1   
  7   4  25  1   
  8   4  26  1   
  9   5   6  ar  
 10   5   7  ar  
 11   6   8  ar  
 12   6  27  1   
 13   7   9  ar  
 14   7  28  1   
 15   8  10  ar  
 16   8  29  1   
 17   9  10  ar  
 18   9  30  1   
 19  10  11  1   
 20  11  12  1   
 21  12  13  1   
 22  12  31  1   
 23  12  32  1   
 24  13  14  1   
 25  13  15  1   
 26  13  33  1   
 27  14  34  1   
 28  15  16  1   
 29  15  35  1   
 30  15  36  1   
 31  16  17  1   
 32  16  18  ar  
 33  17  19  2   
 34  18  20  ar  
 35  18  21  1   
 36  19  20  1   
 37  19  22  1   
 38  20  37  1   
 39  21  38  1   
 40  21  39  1   
 41  21  40  1   
 42  22  41  1   
 43  22  42  1   
 44  22  43  1   
@<TRIPOS>SUBSTRUCTURE
  1 ****  11 GROUP 4 **** **** 0

# MOE 2024.06 (io_trps.svl 2023.06)
