@<TRIPOS>MOLECULE
N-(4-Acetyl-phenyl)-2-(4-methyl-6-oxo-1,6-dihydro-pyrimidin-2-ylsulfanyl)-butyra
43 44 1 0 0 
SMALL
USER_CHARGES


@<TRIPOS>ATOM
  1 S       -0.7970    -1.6450    -1.2400 S.3   1 <1>  -0.3710 
  2 C       -1.3480     0.0450    -1.2590 C.2   1 <1>   0.6410 
  3 C       -1.0630    -2.2960     0.4880 C.3   1 <1>   0.2110 
  4 N       -2.2330     0.4170    -0.2920 N.pl3 1 <1>  -0.5500 
  5 N       -0.8890     0.8030    -2.1810 N.2   1 <1>  -0.6610 
  6 C        0.2090    -2.9920     0.9810 C.2   1 <1>   0.5690 
  7 C       -2.2740    -3.2490     0.4700 C.3   1 <1>  -0.1600 
  8 C       -2.6950     1.7010    -0.2320 C.2   1 <1>  -0.0380 
  9 C       -1.3210     2.0980    -2.1650 C.2   1 <1>   0.7670 
 10 O        0.3490    -3.1210     2.1730 O.2   1 <1>  -0.5700 
 11 N        1.1260    -3.4260     0.0590 N.am  1 <1>  -0.5470 
 12 C       -3.6160    -2.5600     0.1770 C.3   1 <1>  -0.2400 
 13 C       -2.2350     2.5530    -1.1750 C.2   1 <1>  -0.1360 
 14 C       -3.6750     2.0600     0.8660 C.3   1 <1>  -0.1020 
 15 O       -0.9060     2.8640    -3.0190 O.2   1 <1>  -0.5700 
 16 C        2.3360    -4.1110     0.1960 C.ar  1 <1>   0.1170 
 17 C        3.2390    -4.0890    -0.8600 C.ar  1 <1>  -0.1500 
 18 C        2.6880    -4.8310     1.3320 C.ar  1 <1>  -0.1500 
 19 C        4.4470    -4.7550    -0.7840 C.ar  1 <1>  -0.1500 
 20 C        3.8960    -5.4960     1.4060 C.ar  1 <1>  -0.1500 
 21 C        4.8170    -5.4820     0.3540 C.ar  1 <1>   0.0860 
 22 C        6.0730    -6.1920     0.4720 C.2   1 <1>   0.4230 
 23 O        6.3730    -6.8480     1.4360 O.2   1 <1>  -0.5700 
 24 C        7.0960    -6.1370    -0.6470 C.3   1 <1>  -0.1790 
 25 H       -1.2440    -1.4600     1.1360 H     1 <1>   0.0800 
 26 H       -2.5860    -0.3000     0.3400 H     1 <1>   0.4000 
 27 H       -2.3440    -3.7260     1.4330 H     1 <1>   0.0800 
 28 H       -2.1020    -4.0240    -0.2570 H     1 <1>   0.0800 
 29 H        0.9060    -3.1320    -0.8960 H     1 <1>   0.3700 
 30 H       -3.8340    -1.8110     0.9170 H     1 <1>   0.0800 
 31 H       -4.4060    -3.2920     0.2040 H     1 <1>   0.0800 
 32 H       -3.6190    -2.1130    -0.8020 H     1 <1>   0.0800 
 33 H       -2.5250     3.5840    -1.2300 H     1 <1>   0.1500 
 34 H       -3.2290     1.8920     1.8300 H     1 <1>   0.0800 
 35 H       -4.5640     1.4610     0.7810 H     1 <1>   0.0800 
 36 H       -3.9540     3.0960     0.7960 H     1 <1>   0.0800 
 37 H        2.9940    -3.5400    -1.7510 H     1 <1>   0.1500 
 38 H        2.0160    -4.8800     2.1690 H     1 <1>   0.1500 
 39 H        5.1080    -4.7040    -1.6290 H     1 <1>   0.1500 
 40 H        4.1390    -6.0450     2.3010 H     1 <1>   0.1500 
 41 H        6.6880    -6.5730    -1.5400 H     1 <1>   0.0800 
 42 H        7.9730    -6.6920    -0.3670 H     1 <1>   0.0800 
 43 H        7.3830    -5.1190    -0.8350 H     1 <1>   0.0800 
@<TRIPOS>BOND
  1   1   2  1   
  2   1   3  1   
  3   2   4  1   
  4   2   5  2   
  5   3   6  1   
  6   3   7  1   
  7   3  25  1   
  8   4   8  1   
  9   4  26  1   
 10   5   9  1   
 11   6  10  2   
 12   6  11  am  
 13   7  12  1   
 14   7  27  1   
 15   7  28  1   
 16   8  13  2   
 17   8  14  1   
 18   9  13  1   
 19   9  15  2   
 20  11  16  1   
 21  11  29  1   
 22  12  30  1   
 23  12  31  1   
 24  12  32  1   
 25  13  33  1   
 26  14  34  1   
 27  14  35  1   
 28  14  36  1   
 29  16  17  ar  
 30  16  18  ar  
 31  17  19  ar  
 32  17  37  1   
 33  18  20  ar  
 34  18  38  1   
 35  19  21  ar  
 36  19  39  1   
 37  20  21  ar  
 38  20  40  1   
 39  21  22  1   
 40  22  23  2   
 41  22  24  1   
 42  24  41  1   
 43  24  42  1   
 44  24  43  1   
@<TRIPOS>SUBSTRUCTURE
  1 ****  11 GROUP 4 **** **** 0

# MOE 2024.06 (io_trps.svl 2023.06)
