@<TRIPOS>MOLECULE
7-(4-Ethyl-phenyl)-5-methyl-4,7-dihydro-tetrazolo[1,5-a]pyrimidine-6-carboxylic
49 51 1 0 0 
SMALL
USER_CHARGES


@<TRIPOS>ATOM
  1 O       -0.5660    -1.4280     1.6110 O.2   1 <1>  -0.5700 
  2 C       -0.4640    -1.8100     0.4590 C.2   1 <1>   0.6160 
  3 N       -1.5610    -1.7230    -0.3740 N.am  1 <1>  -0.6600 
  4 C        0.7850    -2.3250    -0.0020 C.2   1 <1>  -0.1240 
  5 C       -1.8640    -2.7210    -1.4380 C.3   1 <1>   0.1400 
  6 C       -2.6140    -0.7040    -0.1070 C.3   1 <1>   0.1400 
  7 C        1.4700    -3.3840     0.5150 C.2   1 <1>  -0.0380 
  8 C        1.3610    -1.5120    -1.1730 C.3   1 <1>   0.4570 
  9 C       -2.0880    -4.1020    -0.8240 C.3   1 <1>  -0.2400 
 10 C       -3.7940    -1.3320     0.6320 C.3   1 <1>  -0.2400 
 11 N        2.6710    -3.7900    -0.0290 N.pl3 1 <1>  -0.5840 
 12 C        1.0070    -4.2190     1.6970 C.3   1 <1>  -0.1020 
 13 N        2.5950    -2.1310    -1.7080 N.pl3 1 <1>   0.3140 
 14 C        1.6430    -0.0590    -0.7800 C.ar  1 <1>  -0.1440 
 15 C        3.1800    -3.1820    -1.1670 C.2   1 <1>   0.2700 
 16 N        3.2560    -1.8260    -2.8130 N.2   1 <1>  -0.4180 
 17 C        2.1890     0.2620     0.4550 C.ar  1 <1>  -0.1500 
 18 C        1.3550     0.9640    -1.6720 C.ar  1 <1>  -0.1500 
 19 N        4.1950    -3.5300    -1.8650 N.2   1 <1>  -0.3380 
 20 N        4.2250    -2.6690    -2.8860 N.2   1 <1>   0.0000 
 21 C        2.4340     1.5810     0.7930 C.ar  1 <1>  -0.1500 
 22 C        1.6010     2.2830    -1.3320 C.ar  1 <1>  -0.1500 
 23 C        2.1390     2.6000    -0.0960 C.ar  1 <1>  -0.1440 
 24 C        2.4070     4.0490     0.2780 C.3   1 <1>  -0.0170 
 25 C        3.8140     4.4650    -0.1570 C.3   1 <1>  -0.2400 
 26 H       -1.0580    -2.7690    -2.1470 H     1 <1>   0.0800 
 27 H       -2.7500    -2.4220    -1.9710 H     1 <1>   0.0800 
 28 H       -2.9440    -0.2730    -1.0360 H     1 <1>   0.0800 
 29 H       -2.2010     0.0890     0.4940 H     1 <1>   0.0800 
 30 H        0.6510    -1.5090    -1.9770 H     1 <1>   0.0800 
 31 H       -1.1870    -4.4700    -0.3710 H     1 <1>   0.0800 
 32 H       -2.3830    -4.7940    -1.5920 H     1 <1>   0.0800 
 33 H       -2.8670    -4.0640    -0.0840 H     1 <1>   0.0800 
 34 H       -4.2850    -2.0650     0.0200 H     1 <1>   0.0800 
 35 H       -4.5070    -0.5680     0.8840 H     1 <1>   0.0800 
 36 H       -3.4530    -1.7900     1.5440 H     1 <1>   0.0800 
 37 H        3.2010    -4.5840     0.3460 H     1 <1>   0.4000 
 38 H        1.7060    -4.1210     2.5080 H     1 <1>   0.0800 
 39 H        0.9430    -5.2550     1.4160 H     1 <1>   0.0800 
 40 H        0.0400    -3.9090     2.0510 H     1 <1>   0.0800 
 41 H        2.4270    -0.5090     1.1690 H     1 <1>   0.1500 
 42 H        0.9410     0.7470    -2.6420 H     1 <1>   0.1500 
 43 H        2.8550     1.8100     1.7560 H     1 <1>   0.1500 
 44 H        1.3740     3.0640    -2.0360 H     1 <1>   0.1500 
 45 H        2.3060     4.1720     1.3420 H     1 <1>   0.0800 
 46 H        1.6790     4.6850    -0.1940 H     1 <1>   0.0800 
 47 H        4.5490     3.8450     0.3250 H     1 <1>   0.0800 
 48 H        3.9970     5.4910     0.1090 H     1 <1>   0.0800 
 49 H        3.9190     4.3580    -1.2220 H     1 <1>   0.0800 
@<TRIPOS>BOND
  1   1   2  2   
  2   2   3  am  
  3   2   4  1   
  4   3   5  1   
  5   3   6  1   
  6   4   7  2   
  7   4   8  1   
  8   5   9  1   
  9   5  26  1   
 10   5  27  1   
 11   6  10  1   
 12   6  28  1   
 13   6  29  1   
 14   7  11  1   
 15   7  12  1   
 16   8  13  1   
 17   8  14  1   
 18   8  30  1   
 19   9  31  1   
 20   9  32  1   
 21   9  33  1   
 22  10  34  1   
 23  10  35  1   
 24  10  36  1   
 25  11  15  1   
 26  11  37  1   
 27  12  38  1   
 28  12  39  1   
 29  12  40  1   
 30  13  15  1   
 31  13  16  1   
 32  14  17  ar  
 33  14  18  ar  
 34  15  19  2   
 35  16  20  2   
 36  17  21  ar  
 37  17  41  1   
 38  18  22  ar  
 39  18  42  1   
 40  19  20  1   
 41  21  23  ar  
 42  21  43  1   
 43  22  23  ar  
 44  22  44  1   
 45  23  24  1   
 46  24  25  1   
 47  24  45  1   
 48  24  46  1   
 49  25  47  1   
 50  25  48  1   
 51  25  49  1   
@<TRIPOS>SUBSTRUCTURE
  1 ****   8 GROUP 4 **** **** 0

# MOE 2024.06 (io_trps.svl 2023.06)
