@<TRIPOS>MOLECULE
1,6,7-Trimethyl-3-((E)-3-phenyl-allyl)-8-(tetrahydro-furan-2-ylmethyl)-1H,8H-imi
60 64 1 0 0 
SMALL
USER_CHARGES


@<TRIPOS>ATOM
  1 O        1.6810    -0.6910     2.9080 O.2   1 <1>  -0.5740 
  2 C        2.2490     0.2770     2.4470 C.2   1 <1>   0.6870 
  3 N        1.5760     1.4830     2.3120 N.am  1 <1>  -0.4250 
  4 N        3.5800     0.1790     2.0600 N.am  1 <1>  -0.4410 
  5 C        2.2130     2.6250     1.8490 C.2   1 <1>   0.7000 
  6 C        0.1070     1.5170     2.5170 C.3   1 <1>   0.2730 
  7 C        4.2030     1.3120     1.5760 C.2   1 <1>   0.4220 
  8 C        4.3240    -1.1090     2.1890 C.3   1 <1>   0.0540 
  9 O        1.6270     3.6940     1.8020 O.2   1 <1>  -0.5740 
 10 C        3.5780     2.5080     1.4500 C.2   1 <1>   0.2720 
 11 C       -0.5590     1.1890     1.1960 C.2   1 <1>  -0.2930 
 12 N        5.4900     1.4340     1.1490 N.pl3 1 <1>  -0.7030 
 13 N        4.5280     3.3910     0.9030 N.pl3 1 <1>  -0.6320 
 14 C       -1.1720     2.0870     0.4060 C.2   1 <1>  -0.1840 
 15 C        5.6420     2.6920     0.7390 C.cat 1 <1>   1.0690 
 16 C        4.7850     4.6630     0.4370 C.2   1 <1>   0.2350 
 17 C       -1.8230     1.8590    -0.8660 C.ar  1 <1>   0.0220 
 18 N        6.6230     3.4270     0.1990 N.pl3 1 <1>  -0.5710 
 19 C        6.0710     4.6860     0.0070 C.2   1 <1>   0.1590 
 20 C        3.7070     5.7290     0.4720 C.3   1 <1>  -0.1080 
 21 C       -2.1430     0.5830    -1.3250 C.ar  1 <1>  -0.1560 
 22 C       -2.1550     2.9390    -1.6800 C.ar  1 <1>  -0.1560 
 23 C        8.0380     2.9990    -0.0420 C.3   1 <1>   0.1620 
 24 C        6.8720     5.8300    -0.5940 C.3   1 <1>  -0.1080 
 25 C       -2.7630     0.3930    -2.5470 C.ar  1 <1>  -0.1560 
 26 C       -2.7760     2.7570    -2.9020 C.ar  1 <1>  -0.1560 
 27 C        8.1650     1.7500    -0.9370 C.3   1 <1>   0.1940 
 28 C       -3.0810     1.4810    -3.3400 C.ar  1 <1>  -0.1560 
 29 O        7.5770     0.6370    -0.3370 O.3   1 <1>  -0.5640 
 30 C        9.6070     1.3230    -1.1750 C.3   1 <1>  -0.1660 
 31 C        8.0980    -0.5300    -0.9010 C.3   1 <1>   0.1140 
 32 C        9.4890    -0.1720    -1.4160 C.3   1 <1>  -0.1660 
 33 H       -0.1930     0.8080     3.2700 H     1 <1>   0.0740 
 34 H       -0.1980     2.4930     2.8540 H     1 <1>   0.0740 
 35 H        5.0040    -1.2350     1.3640 H     1 <1>   0.0740 
 36 H        3.6420    -1.9430     2.1890 H     1 <1>   0.0740 
 37 H        4.8770    -1.1170     3.1120 H     1 <1>   0.0740 
 38 H       -0.4800     0.1440     0.9510 H     1 <1>   0.1440 
 39 H        6.2050     0.7350     0.9070 H     1 <1>   0.4460 
 40 H       -1.1990     3.1180     0.7140 H     1 <1>   0.1440 
 41 H        2.8590     5.4110    -0.1080 H     1 <1>   0.0740 
 42 H        4.0670     6.6580     0.0720 H     1 <1>   0.0740 
 43 H        3.3860     5.8930     1.4850 H     1 <1>   0.0740 
 44 H       -1.9130    -0.2750    -0.7230 H     1 <1>   0.1440 
 45 H       -1.9240     3.9370    -1.3540 H     1 <1>   0.1440 
 46 H        8.5790     3.8010    -0.5110 H     1 <1>   0.0740 
 47 H        8.5140     2.8030     0.9040 H     1 <1>   0.0740 
 48 H        7.7250     6.0500     0.0230 H     1 <1>   0.0740 
 49 H        6.2740     6.7200    -0.6700 H     1 <1>   0.0740 
 50 H        7.2110     5.5660    -1.5800 H     1 <1>   0.0740 
 51 H       -3.0010    -0.6020    -2.8820 H     1 <1>   0.1440 
 52 H       -3.0220     3.6070    -3.5140 H     1 <1>   0.1440 
 53 H        7.6770     1.9130    -1.8840 H     1 <1>   0.0740 
 54 H       -3.5630     1.3360    -4.2900 H     1 <1>   0.1440 
 55 H       10.0460     1.8380    -2.0120 H     1 <1>   0.0740 
 56 H       10.2020     1.5050    -0.2970 H     1 <1>   0.0740 
 57 H        8.1330    -1.2970    -0.1460 H     1 <1>   0.0740 
 58 H        7.4540    -0.8350    -1.7090 H     1 <1>   0.0740 
 59 H       10.2520    -0.7190    -0.8890 H     1 <1>   0.0740 
 60 H        9.5590    -0.4050    -2.4650 H     1 <1>   0.0740 
@<TRIPOS>BOND
  1   1   2  2   
  2   2   3  am  
  3   2   4  am  
  4   3   5  am  
  5   3   6  1   
  6   4   7  1   
  7   4   8  1   
  8   5   9  2   
  9   5  10  1   
 10   6  11  1   
 11   6  33  1   
 12   6  34  1   
 13   7  10  2   
 14   7  12  1   
 15   8  35  1   
 16   8  36  1   
 17   8  37  1   
 18  10  13  1   
 19  11  14  2   
 20  11  38  1   
 21  12  15  ar  
 22  12  39  1   
 23  13  15  ar  
 24  13  16  1   
 25  14  17  1   
 26  14  40  1   
 27  15  18  ar  
 28  16  19  2   
 29  16  20  1   
 30  17  21  ar  
 31  17  22  ar  
 32  18  19  1   
 33  18  23  1   
 34  19  24  1   
 35  20  41  1   
 36  20  42  1   
 37  20  43  1   
 38  21  25  ar  
 39  21  44  1   
 40  22  26  ar  
 41  22  45  1   
 42  23  27  1   
 43  23  46  1   
 44  23  47  1   
 45  24  48  1   
 46  24  49  1   
 47  24  50  1   
 48  25  28  ar  
 49  25  51  1   
 50  26  28  ar  
 51  26  52  1   
 52  27  29  1   
 53  27  30  1   
 54  27  53  1   
 55  28  54  1   
 56  29  31  1   
 57  30  32  1   
 58  30  55  1   
 59  30  56  1   
 60  31  32  1   
 61  31  57  1   
 62  31  58  1   
 63  32  59  1   
 64  32  60  1   
@<TRIPOS>SUBSTRUCTURE
  1 ****  10 GROUP 4 **** **** 0

# MOE 2024.06 (io_trps.svl 2023.06)
