@<TRIPOS>MOLECULE
8-(2,6-Dimethyl-morpholin-4-ylmethyl)-3-methyl-3,7-dihydro-purine-2,6-dione
40 42 1 0 0 
SMALL
USER_CHARGES


@<TRIPOS>ATOM
  1 O        0.2640     1.0370    -0.2490 O.2   1 <1>  -0.5700 
  2 C        1.4420     1.2220    -0.4720 C.2   1 <1>   0.6900 
  3 N        2.4460     0.6570     0.3080 N.am  1 <1>  -0.4240 
  4 N        1.7870     2.0120    -1.5290 N.am  1 <1>  -0.4900 
  5 C        3.7800     0.9160    -0.0310 C.2   1 <1>  -0.0880 
  6 C        2.1270    -0.2070     1.4750 C.3   1 <1>   0.0600 
  7 C        3.0750     2.2890    -1.8920 C.2   1 <1>   0.7160 
  8 N        4.9210     0.4960     0.5340 N.pl3 1 <1>   0.0330 
  9 C        4.1210     1.7020    -1.0940 C.2   1 <1>   0.1410 
 10 O        3.2340     3.0090    -2.8610 O.2   1 <1>  -0.5700 
 11 C        5.9130     1.0410    -0.2120 C.2   1 <1>   0.0060 
 12 N        5.4850     1.7680    -1.1910 N.2   1 <1>  -0.5650 
 13 C        7.3690     0.7720     0.1300 C.3   1 <1>   0.2900 
 14 N        7.5140    -0.5660     0.7600 N.3   1 <1>  -0.8100 
 15 C        7.4280    -1.6360    -0.2650 C.3   1 <1>   0.1100 
 16 C        8.8050    -0.6860     1.4660 C.3   1 <1>   0.1100 
 17 C        8.7680    -1.9720    -0.9780 C.3   1 <1>   0.2000 
 18 C       10.0380    -0.6390     0.5240 C.3   1 <1>   0.2000 
 19 O        9.7200    -0.9650    -0.8000 O.3   1 <1>  -0.5600 
 20 C        8.5870    -2.1420    -2.4840 C.3   1 <1>  -0.2400 
 21 C       11.1740    -1.5530     0.9860 C.3   1 <1>  -0.2400 
 22 H        1.0430     2.4150    -2.0830 H     1 <1>   0.3700 
 23 H        1.0650    -0.2400     1.6490 H     1 <1>   0.0800 
 24 H        2.6060     0.1830     2.3550 H     1 <1>   0.0800 
 25 H        2.4770    -1.2060     1.2880 H     1 <1>   0.0800 
 26 H        5.0790    -0.1390     1.3210 H     1 <1>   0.2700 
 27 H        7.6940     1.5340     0.8170 H     1 <1>   0.0800 
 28 H        7.9680     0.8470    -0.7620 H     1 <1>   0.0800 
 29 H        6.6850    -1.3770    -1.0010 H     1 <1>   0.0800 
 30 H        7.0780    -2.5360     0.2090 H     1 <1>   0.0800 
 31 H        8.8100    -1.6230     1.9970 H     1 <1>   0.0800 
 32 H        8.8920     0.0880     2.2090 H     1 <1>   0.0800 
 33 H        9.1720    -2.8820    -0.5680 H     1 <1>   0.0800 
 34 H       10.4070     0.3720     0.4990 H     1 <1>   0.0800 
 35 H        8.2130    -1.2310    -2.9160 H     1 <1>   0.0800 
 36 H        7.8900    -2.9340    -2.6870 H     1 <1>   0.0800 
 37 H        9.5290    -2.3900    -2.9380 H     1 <1>   0.0800 
 38 H       10.8490    -2.5760     1.0320 H     1 <1>   0.0800 
 39 H       11.5080    -1.2560     1.9630 H     1 <1>   0.0800 
 40 H       12.0030    -1.4730     0.3060 H     1 <1>   0.0800 
@<TRIPOS>BOND
  1   1   2  2   
  2   2   3  am  
  3   2   4  am  
  4   3   5  1   
  5   3   6  1   
  6   4   7  am  
  7   4  22  1   
  8   5   8  1   
  9   5   9  2   
 10   6  23  1   
 11   6  24  1   
 12   6  25  1   
 13   7   9  1   
 14   7  10  2   
 15   8  11  1   
 16   8  26  1   
 17   9  12  1   
 18  11  12  2   
 19  11  13  1   
 20  13  14  1   
 21  13  27  1   
 22  13  28  1   
 23  14  15  1   
 24  14  16  1   
 25  15  17  1   
 26  15  29  1   
 27  15  30  1   
 28  16  18  1   
 29  16  31  1   
 30  16  32  1   
 31  17  19  1   
 32  17  20  1   
 33  17  33  1   
 34  18  19  1   
 35  18  21  1   
 36  18  34  1   
 37  20  35  1   
 38  20  36  1   
 39  20  37  1   
 40  21  38  1   
 41  21  39  1   
 42  21  40  1   
@<TRIPOS>SUBSTRUCTURE
  1 ****  11 GROUP 4 **** **** 0

# MOE 2024.06 (io_trps.svl 2023.06)
