@<TRIPOS>MOLECULE
8-(2-Hydroxy-ethylamino)-3-methyl-7-(3-phenoxy-propyl)-3,7-dihydro-purine-2,6-di
48 50 1 0 0 
SMALL
USER_CHARGES


@<TRIPOS>ATOM
  1 O        1.1310     0.9750     1.9450 O.2   1 <1>  -0.5750 
  2 C        2.1160     1.3420     1.3480 C.2   1 <1>   0.6860 
  3 N        3.1760     0.4900     1.0700 N.am  1 <1>  -0.4420 
  4 N        2.1780     2.6420     0.9350 N.am  1 <1>  -0.4960 
  5 C        4.2560     1.0130     0.3750 C.2   1 <1>   0.4200 
  6 C        3.1520    -0.9390     1.5010 C.3   1 <1>   0.0520 
  7 C        3.2320     3.1710     0.2470 C.2   1 <1>   0.6990 
  8 N        5.3900     0.3660    -0.0120 N.pl3 1 <1>  -0.7040 
  9 C        4.3360     2.2990    -0.0380 C.2   1 <1>   0.2700 
 10 O        3.1850     4.3350    -0.0980 O.2   1 <1>  -0.5750 
 11 C        6.1630     1.2350    -0.6550 C.cat 1 <1>   1.0690 
 12 N        5.5770     2.4320    -0.6930 N.pl3 1 <1>  -0.7680 
 13 N        7.3580     0.9530    -1.1710 N.pl3 1 <1>  -0.7180 
 14 C        6.0590     3.7190    -1.2620 C.3   1 <1>   0.3480 
 15 C        8.0530    -0.3630    -1.1760 C.3   1 <1>   0.1600 
 16 C        6.6300     4.6190    -0.1650 C.3   1 <1>  -0.1680 
 17 C        9.2080    -0.3810    -0.1690 C.3   1 <1>   0.1120 
 18 C        7.7760     3.9660     0.6190 C.3   1 <1>   0.1120 
 19 O        9.5910    -1.6970    -0.0030 O.3   1 <1>  -0.6840 
 20 O        8.3120     4.9090     1.5130 O.3   1 <1>  -0.3690 
 21 C        9.1810     5.8240     1.0290 C.ar  1 <1>   0.0740 
 22 C        8.8670     7.1670     1.1550 C.ar  1 <1>  -0.1580 
 23 C       10.3700     5.4410     0.4200 C.ar  1 <1>  -0.1580 
 24 C        9.7250     8.1280     0.6490 C.ar  1 <1>  -0.1580 
 25 C       11.2250     6.4040    -0.0860 C.ar  1 <1>  -0.1580 
 26 C       10.9010     7.7460     0.0250 C.ar  1 <1>  -0.1580 
 27 H        1.3820     3.2400     1.1500 H     1 <1>   0.3640 
 28 H        2.2540    -1.1590     2.0530 H     1 <1>   0.0720 
 29 H        3.9960    -1.1440     2.1360 H     1 <1>   0.0720 
 30 H        3.1850    -1.5820     0.6390 H     1 <1>   0.0720 
 31 H        5.6230    -0.6090     0.1570 H     1 <1>   0.4440 
 32 H        7.8560     1.6940    -1.6610 H     1 <1>   0.4440 
 33 H        5.2420     4.2270    -1.7500 H     1 <1>   0.0720 
 34 H        6.8160     3.5360    -2.0060 H     1 <1>   0.0720 
 35 H        8.4390    -0.5610    -2.1620 H     1 <1>   0.0720 
 36 H        7.3590    -1.1480    -0.9270 H     1 <1>   0.0720 
 37 H        5.8460     4.9030     0.5150 H     1 <1>   0.0720 
 38 H        6.9930     5.5160    -0.6350 H     1 <1>   0.0720 
 39 H        8.9000    -0.0070     0.7930 H     1 <1>   0.0720 
 40 H       10.0540     0.1750    -0.5360 H     1 <1>   0.0720 
 41 H        8.5560     3.6190    -0.0340 H     1 <1>   0.0720 
 42 H        7.4160     3.1450     1.2120 H     1 <1>   0.0720 
 43 H       10.3980    -1.7730     0.5510 H     1 <1>   0.3940 
 44 H        7.9550     7.4550     1.6460 H     1 <1>   0.1420 
 45 H       10.6340     4.4040     0.3510 H     1 <1>   0.1420 
 46 H        9.4800     9.1720     0.7420 H     1 <1>   0.1420 
 47 H       12.1460     6.1130    -0.5610 H     1 <1>   0.1420 
 48 H       11.5660     8.4940    -0.3690 H     1 <1>   0.1420 
@<TRIPOS>BOND
  1   1   2  2   
  2   2   3  am  
  3   2   4  am  
  4   3   5  1   
  5   3   6  1   
  6   4   7  am  
  7   4  27  1   
  8   5   8  1   
  9   5   9  2   
 10   6  28  1   
 11   6  29  1   
 12   6  30  1   
 13   7   9  1   
 14   7  10  2   
 15   8  11  ar  
 16   8  31  1   
 17   9  12  1   
 18  11  12  ar  
 19  11  13  ar  
 20  12  14  1   
 21  13  15  1   
 22  13  32  1   
 23  14  16  1   
 24  14  33  1   
 25  14  34  1   
 26  15  17  1   
 27  15  35  1   
 28  15  36  1   
 29  16  18  1   
 30  16  37  1   
 31  16  38  1   
 32  17  19  1   
 33  17  39  1   
 34  17  40  1   
 35  18  20  1   
 36  18  41  1   
 37  18  42  1   
 38  19  43  1   
 39  20  21  1   
 40  21  22  ar  
 41  21  23  ar  
 42  22  24  ar  
 43  22  44  1   
 44  23  25  ar  
 45  23  45  1   
 46  24  26  ar  
 47  24  46  1   
 48  25  26  ar  
 49  25  47  1   
 50  26  48  1   
@<TRIPOS>SUBSTRUCTURE
  1 ****  12 GROUP 4 **** **** 0

# MOE 2024.06 (io_trps.svl 2023.06)
