@<TRIPOS>MOLECULE
Ethanesulfonic acid [4-(5-furan-2-yl-1-methanesulfonyl-4,5-dihydro-1H-pyrazol-3-
45 47 1 0 0 
SMALL
USER_CHARGES


@<TRIPOS>ATOM
  1 S       -0.2000     0.0310     0.0090 S.o2  1 <1>   1.3330 
  2 O       -0.3500     0.6390     1.3070 O.2   1 <1>  -0.6500 
  3 O        0.4860    -1.2250    -0.1560 O.2   1 <1>  -0.6500 
  4 N       -1.7680    -0.2880    -0.6120 N.am  1 <1>  -0.7570 
  5 C        0.4490     1.2170    -1.1760 C.3   1 <1>  -0.0550 
  6 C       -2.9170     0.4900    -0.5930 C.ar  1 <1>   0.1990 
  7 C        1.8950     1.6650    -0.8990 C.3   1 <1>  -0.2400 
  8 C       -4.0700    -0.0030    -1.1890 C.ar  1 <1>  -0.1500 
  9 C       -2.9780     1.7520    -0.0120 C.ar  1 <1>  -0.1500 
 10 C       -5.2370     0.7360    -1.2160 C.ar  1 <1>  -0.1500 
 11 C       -4.1450     2.4900    -0.0410 C.ar  1 <1>  -0.1500 
 12 C       -5.3110     2.0110    -0.6450 C.ar  1 <1>   0.0860 
 13 C       -6.5130     2.8140    -0.6630 C.2   1 <1>   0.3030 
 14 N       -6.6480     3.9820    -0.1740 N.2   1 <1>  -0.4300 
 15 C       -7.7840     2.3130    -1.3160 C.3   1 <1>  -0.0990 
 16 N       -7.9300     4.4370    -0.3610 N.am  1 <1>  -0.5140 
 17 C       -8.7580     3.4640    -1.0840 C.3   1 <1>   0.4560 
 18 S       -8.3710     6.1050    -0.6090 S.o2  1 <1>   1.3330 
 19 C       -9.9660     3.0040    -0.2740 C.2   1 <1>  -0.0400 
 20 O       -9.7710     6.2410    -0.2850 O.2   1 <1>  -0.6500 
 21 O       -7.8940     6.4810    -1.9180 O.2   1 <1>  -0.6500 
 22 C       -7.4180     6.9350     0.6440 C.3   1 <1>  -0.1350 
 23 O      -10.7620     2.0880    -0.7990 O.3   1 <1>  -0.2800 
 24 C      -10.4140     3.3630     0.9500 C.2   1 <1>  -0.1500 
 25 C      -11.7250     1.8490     0.0680 C.2   1 <1>  -0.0100 
 26 C      -11.5690     2.6050     1.1750 C.2   1 <1>  -0.1500 
 27 H       -1.8370    -1.2670    -0.8710 H     1 <1>   0.4200 
 28 H       -0.1810     2.0850    -1.1810 H     1 <1>   0.0800 
 29 H        0.4090     0.7840    -2.1570 H     1 <1>   0.0800 
 30 H        1.9600     2.1290     0.0710 H     1 <1>   0.0800 
 31 H        2.2170     2.3710    -1.6440 H     1 <1>   0.0800 
 32 H        2.5560     0.8160    -0.9170 H     1 <1>   0.0800 
 33 H       -4.0500    -0.9790    -1.6400 H     1 <1>   0.1500 
 34 H       -2.1170     2.1690     0.4760 H     1 <1>   0.1500 
 35 H       -6.1000     0.3060    -1.6910 H     1 <1>   0.1500 
 36 H       -4.1570     3.4640     0.4200 H     1 <1>   0.1500 
 37 H       -8.1260     1.4100    -0.8460 H     1 <1>   0.0800 
 38 H       -7.6440     2.1540    -2.3680 H     1 <1>   0.0800 
 39 H       -9.0790     3.8830    -2.0230 H     1 <1>   0.0800 
 40 H       -7.6860     6.5670     1.6150 H     1 <1>   0.0800 
 41 H       -7.6020     7.9910     0.6090 H     1 <1>   0.0800 
 42 H       -6.3720     6.7590     0.4850 H     1 <1>   0.0800 
 43 H       -9.9970     4.0840     1.6320 H     1 <1>   0.1500 
 44 H      -12.4820     1.1260    -0.1820 H     1 <1>   0.1500 
 45 H      -12.1810     2.6460     2.0580 H     1 <1>   0.1500 
@<TRIPOS>BOND
  1   1   2  2   
  2   1   3  2   
  3   1   4  am  
  4   1   5  1   
  5   4   6  1   
  6   4  27  1   
  7   5   7  1   
  8   5  28  1   
  9   5  29  1   
 10   6   8  ar  
 11   6   9  ar  
 12   7  30  1   
 13   7  31  1   
 14   7  32  1   
 15   8  10  ar  
 16   8  33  1   
 17   9  11  ar  
 18   9  34  1   
 19  10  12  ar  
 20  10  35  1   
 21  11  12  ar  
 22  11  36  1   
 23  12  13  1   
 24  13  14  2   
 25  13  15  1   
 26  14  16  1   
 27  15  17  1   
 28  15  37  1   
 29  15  38  1   
 30  16  17  1   
 31  16  18  am  
 32  17  19  1   
 33  17  39  1   
 34  18  20  2   
 35  18  21  2   
 36  18  22  1   
 37  19  23  1   
 38  19  24  2   
 39  22  40  1   
 40  22  41  1   
 41  22  42  1   
 42  23  25  1   
 43  24  26  1   
 44  24  43  1   
 45  25  26  2   
 46  25  44  1   
 47  26  45  1   
@<TRIPOS>SUBSTRUCTURE
  1 ****  12 GROUP 4 **** **** 0

# MOE 2024.06 (io_trps.svl 2023.06)
