@<TRIPOS>MOLECULE
Cyclohexanecarboxylic acid {1-[3-(2-methoxy-phenyl)-[1,2,4]oxadiazol-5-yl]-ethyl
47 49 1 0 0 
SMALL
USER_CHARGES


@<TRIPOS>ATOM
  1 O       -0.9900    -1.0640     0.9960 O.2   1 <1>  -0.5700 
  2 C       -2.0270    -0.6010     0.5950 C.2   1 <1>   0.5690 
  3 N       -2.8570    -1.4470    -0.0630 N.am  1 <1>  -0.7300 
  4 C       -2.2530     0.9010     0.8420 C.3   1 <1>  -0.0190 
  5 C       -4.2850    -1.3920    -0.4440 C.3   1 <1>   0.4000 
  6 C       -3.6780     1.3580     1.2170 C.3   1 <1>  -0.1600 
  7 C       -1.7100     1.7480    -0.3250 C.3   1 <1>  -0.1600 
  8 C       -4.9130    -2.7840    -0.3890 C.2   1 <1>   0.2980 
  9 C       -4.3990    -0.7960    -1.8480 C.3   1 <1>  -0.2400 
 10 C       -3.6960     2.8480     1.5820 C.3   1 <1>  -0.1600 
 11 C       -1.7560     3.2490    -0.0010 C.3   1 <1>  -0.1600 
 12 O       -4.3580    -3.7530    -1.0710 O.3   1 <1>  -0.0190 
 13 N       -5.9480    -3.1080     0.2710 N.2   1 <1>  -0.5650 
 14 C       -3.1620     3.6970     0.4200 C.3   1 <1>  -0.1600 
 15 N       -5.1040    -4.7830    -0.8240 N.2   1 <1>  -0.4100 
 16 C       -6.0510    -4.4030    -0.0420 C.2   1 <1>   0.4620 
 17 C       -7.0890    -5.2590     0.4860 C.ar  1 <1>   0.0540 
 18 C       -8.4490    -5.0270     0.2400 C.ar  1 <1>   0.0820 
 19 C       -6.7410    -6.3610     1.2660 C.ar  1 <1>  -0.1500 
 20 O       -8.7780    -3.9710    -0.5500 O.3   1 <1>  -0.3630 
 21 C       -9.4120    -5.8740     0.7850 C.ar  1 <1>  -0.1500 
 22 C       -7.6990    -7.2000     1.8010 C.ar  1 <1>  -0.1500 
 23 C      -10.1160    -3.6390    -0.8490 C.3   1 <1>   0.0400 
 24 C       -9.0390    -6.9540     1.5620 C.ar  1 <1>  -0.1500 
 25 H       -2.4630    -2.3850    -0.1630 H     1 <1>   0.3700 
 26 H       -1.6370     1.1310     1.6940 H     1 <1>   0.0800 
 27 H       -4.8280    -0.7880     0.2570 H     1 <1>   0.0800 
 28 H       -4.0430     0.7770     2.0470 H     1 <1>   0.0800 
 29 H       -4.3400     1.2300     0.3830 H     1 <1>   0.0800 
 30 H       -2.2840     1.5570    -1.2140 H     1 <1>   0.0800 
 31 H       -0.6910     1.4630    -0.5270 H     1 <1>   0.0800 
 32 H       -3.8420    -1.3860    -2.5530 H     1 <1>   0.0800 
 33 H       -4.0360     0.2130    -1.8610 H     1 <1>   0.0800 
 34 H       -5.4310    -0.7860    -2.1500 H     1 <1>   0.0800 
 35 H       -3.0900     3.0140     2.4570 H     1 <1>   0.0800 
 36 H       -4.7020     3.1510     1.8160 H     1 <1>   0.0800 
 37 H       -1.4390     3.8140    -0.8610 H     1 <1>   0.0800 
 38 H       -1.0660     3.4580     0.7990 H     1 <1>   0.0800 
 39 H       -3.1370     4.7330     0.7120 H     1 <1>   0.0800 
 40 H       -3.8290     3.6100    -0.4210 H     1 <1>   0.0800 
 41 H       -5.6990    -6.5560     1.4530 H     1 <1>   0.1500 
 42 H      -10.4590    -5.7110     0.6140 H     1 <1>   0.1500 
 43 H       -7.4050    -8.0430     2.4030 H     1 <1>   0.1500 
 44 H      -10.1100    -2.7670    -1.4780 H     1 <1>   0.0800 
 45 H      -10.6350    -3.4240     0.0680 H     1 <1>   0.0800 
 46 H      -10.5720    -4.4620    -1.3700 H     1 <1>   0.0800 
 47 H       -9.7880    -7.6050     1.9800 H     1 <1>   0.1500 
@<TRIPOS>BOND
  1   1   2  2   
  2   2   3  am  
  3   2   4  1   
  4   3   5  1   
  5   3  25  1   
  6   4   6  1   
  7   4   7  1   
  8   4  26  1   
  9   5   8  1   
 10   5   9  1   
 11   5  27  1   
 12   6  10  1   
 13   6  28  1   
 14   6  29  1   
 15   7  11  1   
 16   7  30  1   
 17   7  31  1   
 18   8  12  1   
 19   8  13  2   
 20   9  32  1   
 21   9  33  1   
 22   9  34  1   
 23  10  14  1   
 24  10  35  1   
 25  10  36  1   
 26  11  14  1   
 27  11  37  1   
 28  11  38  1   
 29  12  15  1   
 30  13  16  1   
 31  14  39  1   
 32  14  40  1   
 33  15  16  2   
 34  16  17  1   
 35  17  18  ar  
 36  17  19  ar  
 37  18  20  1   
 38  18  21  ar  
 39  19  22  ar  
 40  19  41  1   
 41  20  23  1   
 42  21  24  ar  
 43  21  42  1   
 44  22  24  ar  
 45  22  43  1   
 46  23  44  1   
 47  23  45  1   
 48  23  46  1   
 49  24  47  1   
@<TRIPOS>SUBSTRUCTURE
  1 ****   8 GROUP 4 **** **** 0

# MOE 2024.06 (io_trps.svl 2023.06)
