@<TRIPOS>MOLECULE
7-Methyl-3-[5-(tetrahydro-furan-2-yl)-[1,2,4]oxadiazol-3-yl]-quinolin-2-ol
37 40 1 0 0 
SMALL
USER_CHARGES


@<TRIPOS>ATOM
  1 O       -0.8250     0.8410    -1.2300 O.3   1 <1>  -0.0190 
  2 N       -1.6850    -0.1000    -1.4590 N.2   1 <1>  -0.4100 
  3 C       -1.2970     1.4610    -0.1790 C.2   1 <1>   0.2980 
  4 C       -2.6070    -0.0170    -0.5660 C.2   1 <1>   0.4700 
  5 N       -2.3870     0.9940     0.2810 N.2   1 <1>  -0.5650 
  6 C       -0.5090     2.6400     0.3920 C.3   1 <1>   0.3800 
  7 C       -3.7810    -0.8430    -0.4540 C.2   1 <1>   0.0600 
  8 O       -0.2460     3.5960    -0.6020 O.3   1 <1>  -0.5600 
  9 C        0.8530     2.2390     0.9710 C.3   1 <1>  -0.1600 
 10 C       -3.6570    -2.2690    -0.6140 C.2   1 <1>   0.6160 
 11 C       -5.0160    -0.3180    -0.1920 C.2   1 <1>  -0.1780 
 12 C        1.1020     3.6120    -0.9400 C.3   1 <1>   0.1200 
 13 C        1.8290     3.2100     0.3310 C.3   1 <1>  -0.1600 
 14 O       -2.6070    -2.8650    -0.7680 O.2   1 <1>  -0.5700 
 15 N       -4.7870    -3.0310    -0.5550 N.am  1 <1>  -0.5470 
 16 C       -6.1850    -1.1330    -0.1040 C.ar  1 <1>   0.0280 
 17 C       -6.0510    -2.5170    -0.2970 C.ar  1 <1>   0.1170 
 18 C       -7.4540    -0.6180     0.1630 C.ar  1 <1>  -0.1500 
 19 C       -7.1700    -3.3410    -0.2250 C.ar  1 <1>  -0.1500 
 20 C       -8.5540    -1.4450     0.2330 C.ar  1 <1>  -0.1500 
 21 C       -8.4190    -2.8160     0.0380 C.ar  1 <1>  -0.1430 
 22 C       -9.6460    -3.7070     0.1200 C.3   1 <1>  -0.0970 
 23 H       -1.1020     3.1280     1.1450 H     1 <1>   0.0800 
 24 H        1.0920     1.2280     0.6880 H     1 <1>   0.0800 
 25 H        0.8560     2.3060     2.0440 H     1 <1>   0.0800 
 26 H       -5.1400     0.7410    -0.0500 H     1 <1>   0.1500 
 27 H        1.3720     4.5960    -1.2830 H     1 <1>   0.0800 
 28 H        1.2560     2.8890    -1.7240 H     1 <1>   0.0800 
 29 H        2.7870     2.7650     0.1260 H     1 <1>   0.0800 
 30 H        1.9620     4.0780     0.9530 H     1 <1>   0.0800 
 31 H       -4.6380    -4.0310    -0.6770 H     1 <1>   0.3700 
 32 H       -7.5700     0.4410     0.3150 H     1 <1>   0.1500 
 33 H       -7.0490    -4.3980    -0.3770 H     1 <1>   0.1500 
 34 H       -9.5250    -1.0300     0.4390 H     1 <1>   0.1500 
 35 H       -9.3880    -4.7360    -0.0520 H     1 <1>   0.0800 
 36 H      -10.3660    -3.4060    -0.6200 H     1 <1>   0.0800 
 37 H      -10.0940    -3.6250     1.0940 H     1 <1>   0.0800 
@<TRIPOS>BOND
  1   1   2  1   
  2   1   3  1   
  3   2   4  2   
  4   3   5  2   
  5   3   6  1   
  6   4   5  1   
  7   4   7  1   
  8   6   8  1   
  9   6   9  1   
 10   6  23  1   
 11   7  10  1   
 12   7  11  2   
 13   8  12  1   
 14   9  13  1   
 15   9  24  1   
 16   9  25  1   
 17  10  14  2   
 18  10  15  am  
 19  11  16  1   
 20  11  26  1   
 21  12  13  1   
 22  12  27  1   
 23  12  28  1   
 24  13  29  1   
 25  13  30  1   
 26  15  17  1   
 27  15  31  1   
 28  16  17  ar  
 29  16  18  ar  
 30  17  19  ar  
 31  18  20  ar  
 32  18  32  1   
 33  19  21  ar  
 34  19  33  1   
 35  20  21  ar  
 36  20  34  1   
 37  21  22  1   
 38  22  35  1   
 39  22  36  1   
 40  22  37  1   
@<TRIPOS>SUBSTRUCTURE
  1 ****   7 GROUP 4 **** **** 0

# MOE 2024.06 (io_trps.svl 2023.06)
