@<TRIPOS>MOLECULE
3,5-Bis-(3,4,5-trimethoxy-phenyl)-[1,2,4]oxadiazole
51 53 1 0 0 
SMALL
USER_CHARGES


@<TRIPOS>ATOM
  1 O       -0.4750     0.1430     0.3130 O.3   1 <1>  -0.0190 
  2 N       -1.3080    -0.8210     0.2020 N.2   1 <1>  -0.4100 
  3 C       -1.0890     1.2890     0.2230 C.2   1 <1>   0.4250 
  4 C       -2.4480    -0.2400     0.0410 C.2   1 <1>   0.4620 
  5 N       -2.3490     1.1060     0.0490 N.2   1 <1>  -0.5650 
  6 C       -0.3650     2.5380     0.3180 C.ar  1 <1>   0.0530 
  7 C       -3.7200    -0.9270    -0.1310 C.ar  1 <1>   0.0540 
  8 C       -1.0400     3.7570     0.2600 C.ar  1 <1>  -0.1500 
  9 C        1.0230     2.5710     0.4660 C.ar  1 <1>  -0.1500 
 10 C       -4.9040    -0.2240    -0.3580 C.ar  1 <1>  -0.1500 
 11 C       -3.7980    -2.3190    -0.0720 C.ar  1 <1>  -0.1500 
 12 C       -0.3690     4.9700     0.3520 C.ar  1 <1>   0.0830 
 13 C        1.7180     3.7700     0.5590 C.ar  1 <1>   0.0830 
 14 C       -6.1210    -0.8730    -0.5260 C.ar  1 <1>   0.0830 
 15 C       -5.0020    -2.9940    -0.2350 C.ar  1 <1>   0.0830 
 16 O       -1.0150     6.1710     0.2960 O.3   1 <1>  -0.3630 
 17 C        1.0170     4.9740     0.5030 C.ar  1 <1>   0.0830 
 18 O        3.0750     3.8230     0.6970 O.3   1 <1>  -0.3630 
 19 O       -7.2880    -0.2000    -0.7450 O.3   1 <1>  -0.3630 
 20 C       -6.1670    -2.2650    -0.4640 C.ar  1 <1>   0.0830 
 21 O       -5.0950    -4.3550    -0.1750 O.3   1 <1>  -0.3630 
 22 C       -2.4180     6.2620     0.4100 C.3   1 <1>   0.0400 
 23 O        1.6850     6.1500     0.6210 O.3   1 <1>  -0.3630 
 24 C        3.8360     2.6750     0.9990 C.3   1 <1>   0.0400 
 25 C       -7.2970     1.1670    -1.0890 C.3   1 <1>   0.0400 
 26 O       -7.3470    -2.9130    -0.6510 O.3   1 <1>  -0.3630 
 27 C       -3.9470    -5.1750    -0.1660 C.3   1 <1>   0.0400 
 28 C        2.0650     6.7560    -0.5900 C.3   1 <1>   0.0400 
 29 C       -8.0960    -3.1450     0.5160 C.3   1 <1>   0.0400 
 30 H       -2.1060     3.7330     0.1390 H     1 <1>   0.1500 
 31 H        1.5530     1.6390     0.5030 H     1 <1>   0.1500 
 32 H       -4.8550     0.8470    -0.3980 H     1 <1>   0.1500 
 33 H       -2.8930    -2.8670     0.1090 H     1 <1>   0.1500 
 34 H       -2.6810     7.3030     0.4510 H     1 <1>   0.0800 
 35 H       -2.7270     5.7710     1.3160 H     1 <1>   0.0800 
 36 H       -2.8690     5.8060    -0.4530 H     1 <1>   0.0800 
 37 H        4.8530     2.9850     1.1590 H     1 <1>   0.0800 
 38 H        3.7890     1.9950     0.1680 H     1 <1>   0.0800 
 39 H        3.4480     2.2240     1.8950 H     1 <1>   0.0800 
 40 H       -8.3090     1.4440    -1.3240 H     1 <1>   0.0800 
 41 H       -6.6690     1.3140    -1.9500 H     1 <1>   0.0800 
 42 H       -6.9480     1.7420    -0.2510 H     1 <1>   0.0800 
 43 H       -4.2710    -6.1990    -0.2110 H     1 <1>   0.0800 
 44 H       -3.4020    -5.0050     0.7460 H     1 <1>   0.0800 
 45 H       -3.3460    -4.9430    -1.0270 H     1 <1>   0.0800 
 46 H        2.5840     7.6680    -0.3600 H     1 <1>   0.0800 
 47 H        1.1810     6.9680    -1.1640 H     1 <1>   0.0800 
 48 H        2.7130     6.0840    -1.1240 H     1 <1>   0.0800 
 49 H       -8.9970    -3.6590     0.2390 H     1 <1>   0.0800 
 50 H       -8.3330    -2.1980     0.9690 H     1 <1>   0.0800 
 51 H       -7.5130    -3.7510     1.1870 H     1 <1>   0.0800 
@<TRIPOS>BOND
  1   1   2  1   
  2   1   3  1   
  3   2   4  2   
  4   3   5  2   
  5   3   6  1   
  6   4   5  1   
  7   4   7  1   
  8   6   8  ar  
  9   6   9  ar  
 10   7  10  ar  
 11   7  11  ar  
 12   8  12  ar  
 13   8  30  1   
 14   9  13  ar  
 15   9  31  1   
 16  10  14  ar  
 17  10  32  1   
 18  11  15  ar  
 19  11  33  1   
 20  12  16  1   
 21  12  17  ar  
 22  13  17  ar  
 23  13  18  1   
 24  14  19  1   
 25  14  20  ar  
 26  15  20  ar  
 27  15  21  1   
 28  16  22  1   
 29  17  23  1   
 30  18  24  1   
 31  19  25  1   
 32  20  26  1   
 33  21  27  1   
 34  22  34  1   
 35  22  35  1   
 36  22  36  1   
 37  23  28  1   
 38  24  37  1   
 39  24  38  1   
 40  24  39  1   
 41  25  40  1   
 42  25  41  1   
 43  25  42  1   
 44  26  29  1   
 45  27  43  1   
 46  27  44  1   
 47  27  45  1   
 48  28  46  1   
 49  28  47  1   
 50  28  48  1   
 51  29  49  1   
 52  29  50  1   
 53  29  51  1   
@<TRIPOS>SUBSTRUCTURE
  1 ****   5 GROUP 4 **** **** 0

# MOE 2024.06 (io_trps.svl 2023.06)
