@<TRIPOS>MOLECULE
3-(5-Cyclohexyl-[1,2,4]oxadiazol-3-yl)-quinolin-2-ol
39 42 1 0 0 
SMALL
USER_CHARGES


@<TRIPOS>ATOM
  1 O       -0.9640     0.8220    -1.5360 O.3   1 <1>  -0.0190 
  2 N       -1.8200    -0.1350    -1.7000 N.2   1 <1>  -0.4100 
  3 C       -1.3820     1.4460    -0.4640 C.2   1 <1>   0.2980 
  4 C       -2.6820    -0.0630    -0.7480 C.2   1 <1>   0.4700 
  5 N       -2.4310     0.9670     0.0670 N.2   1 <1>  -0.5650 
  6 C       -0.6040     2.6560     0.0390 C.3   1 <1>   0.1000 
  7 C       -3.8270    -0.9140    -0.5440 C.2   1 <1>   0.0600 
  8 C       -0.5990     3.7890    -1.0040 C.3   1 <1>  -0.1600 
  9 C        0.8330     2.2680     0.4330 C.3   1 <1>  -0.1600 
 10 C       -3.7110    -2.3300    -0.7800 C.2   1 <1>   0.6160 
 11 C       -5.0310    -0.4180    -0.1230 C.2   1 <1>  -0.1780 
 12 C        0.2000     5.0050    -0.5120 C.3   1 <1>  -0.1600 
 13 C        1.6310     3.4840     0.9240 C.3   1 <1>  -0.1600 
 14 O       -2.6820    -2.9090    -1.0790 O.2   1 <1>  -0.5700 
 15 N       -4.8210    -3.1090    -0.6290 N.am  1 <1>  -0.5470 
 16 C       -6.1760    -1.2510     0.0590 C.ar  1 <1>   0.0280 
 17 C        1.6290     4.6070    -0.1210 C.3   1 <1>  -0.1600 
 18 C       -6.0520    -2.6240    -0.2100 C.ar  1 <1>   0.1170 
 19 C       -7.4110    -0.7620     0.4880 C.ar  1 <1>  -0.1500 
 20 C       -7.1500    -3.4650    -0.0500 C.ar  1 <1>  -0.1500 
 21 C       -8.4910    -1.6050     0.6440 C.ar  1 <1>  -0.1500 
 22 C       -8.3610    -2.9610     0.3740 C.ar  1 <1>  -0.1500 
 23 H       -1.1050     3.0170     0.9210 H     1 <1>   0.0800 
 24 H       -1.6110     4.0850    -1.2150 H     1 <1>   0.0800 
 25 H       -0.1630     3.4290    -1.9200 H     1 <1>   0.0800 
 26 H        1.3340     1.8390    -0.4180 H     1 <1>   0.0800 
 27 H        0.8020     1.5210     1.2080 H     1 <1>   0.0800 
 28 H       -5.1480     0.6320     0.0790 H     1 <1>   0.1500 
 29 H       -0.2950     5.4380     0.3410 H     1 <1>   0.0800 
 30 H        0.2330     5.7510    -1.2870 H     1 <1>   0.0800 
 31 H        2.6450     3.1890     1.1330 H     1 <1>   0.0800 
 32 H        1.2000     3.8500     1.8410 H     1 <1>   0.0800 
 33 H       -4.6780    -4.1010    -0.8110 H     1 <1>   0.3700 
 34 H        2.1470     5.4660     0.2720 H     1 <1>   0.0800 
 35 H        2.1600     4.2780    -0.9980 H     1 <1>   0.0800 
 36 H       -7.5170     0.2880     0.6990 H     1 <1>   0.1500 
 37 H       -7.0480    -4.5150    -0.2590 H     1 <1>   0.1500 
 38 H       -9.4400    -1.2170     0.9750 H     1 <1>   0.1500 
 39 H       -9.2090    -3.6130     0.4970 H     1 <1>   0.1500 
@<TRIPOS>BOND
  1   1   2  1   
  2   1   3  1   
  3   2   4  2   
  4   3   5  2   
  5   3   6  1   
  6   4   5  1   
  7   4   7  1   
  8   6   8  1   
  9   6   9  1   
 10   6  23  1   
 11   7  10  1   
 12   7  11  2   
 13   8  12  1   
 14   8  24  1   
 15   8  25  1   
 16   9  13  1   
 17   9  26  1   
 18   9  27  1   
 19  10  14  2   
 20  10  15  am  
 21  11  16  1   
 22  11  28  1   
 23  12  17  1   
 24  12  29  1   
 25  12  30  1   
 26  13  17  1   
 27  13  31  1   
 28  13  32  1   
 29  15  18  1   
 30  15  33  1   
 31  16  18  ar  
 32  16  19  ar  
 33  17  34  1   
 34  17  35  1   
 35  18  20  ar  
 36  19  21  ar  
 37  19  36  1   
 38  20  22  ar  
 39  20  37  1   
 40  21  22  ar  
 41  21  38  1   
 42  22  39  1   
@<TRIPOS>SUBSTRUCTURE
  1 ****   4 GROUP 4 **** **** 0

# MOE 2024.06 (io_trps.svl 2023.06)
