@<TRIPOS>MOLECULE
2-(2-Methoxy-phenyl)-1-(4-pyridin-2-yl-piperazin-1-yl)-ethanone
44 46 1 0 0 
SMALL
USER_CHARGES


@<TRIPOS>ATOM
  1 O        0.7760    -0.3350    -1.4410 O.2   1 <1>  -0.5700 
  2 C        0.4690     0.8060    -1.1800 C.2   1 <1>   0.5690 
  3 N        1.2940     1.6150    -0.4370 N.am  1 <1>  -0.6600 
  4 C       -0.8690     1.3030    -1.7140 C.3   1 <1>   0.0440 
  5 C        0.9950     3.0310    -0.0420 C.3   1 <1>   0.1400 
  6 C        2.5930     1.1130     0.1140 C.3   1 <1>   0.1400 
  7 C       -1.8910     1.5710    -0.6060 C.ar  1 <1>  -0.1440 
  8 C        2.1740     3.9700    -0.3490 C.3   1 <1>   0.2090 
  9 C        3.7540     2.0690    -0.2090 C.3   1 <1>   0.2090 
 10 C       -2.5550     2.7930    -0.4870 C.ar  1 <1>   0.0820 
 11 C       -2.1630     0.5580     0.3000 C.ar  1 <1>  -0.1500 
 12 N        3.4490     3.4590     0.2390 N.pl3 1 <1>  -0.8380 
 13 O       -2.2700     3.7670    -1.3920 O.3   1 <1>  -0.3620 
 14 C       -3.4740     2.9780     0.5440 C.ar  1 <1>  -0.1500 
 15 C       -3.0770     0.7480     1.3210 C.ar  1 <1>  -0.1500 
 16 C        4.5190     4.3280     0.3070 C.ar  1 <1>   0.4100 
 17 C       -2.9870     4.9820    -1.4280 C.3   1 <1>   0.0400 
 18 C       -3.7320     1.9590     1.4430 C.ar  1 <1>  -0.1500 
 19 N        4.6420     5.2250    -0.6650 N.ar  1 <1>  -0.6200 
 20 C        5.4160     4.2240     1.3670 C.ar  1 <1>  -0.1500 
 21 C        5.6860     6.0330    -0.5760 C.ar  1 <1>   0.1600 
 22 C        6.4980     5.0700     1.4470 C.ar  1 <1>  -0.1500 
 23 C        6.6280     6.0010     0.4360 C.ar  1 <1>  -0.1500 
 24 H       -1.2730     0.5530    -2.3680 H     1 <1>   0.0800 
 25 H       -0.6860     2.1710    -2.3160 H     1 <1>   0.0800 
 26 H        0.7900     3.0620     1.0140 H     1 <1>   0.0800 
 27 H        0.1300     3.4020    -0.5540 H     1 <1>   0.0800 
 28 H        2.8220     0.1410    -0.2850 H     1 <1>   0.0800 
 29 H        2.5050     1.0180     1.1810 H     1 <1>   0.0800 
 30 H        1.9660     4.9480     0.0490 H     1 <1>   0.0800 
 31 H        2.2860     4.0640    -1.4150 H     1 <1>   0.0800 
 32 H        3.9290     2.0700    -1.2710 H     1 <1>   0.0800 
 33 H        4.6480     1.7200     0.2750 H     1 <1>   0.0800 
 34 H       -1.6590    -0.3910     0.2160 H     1 <1>   0.1500 
 35 H       -3.9990     3.9050     0.6660 H     1 <1>   0.1500 
 36 H       -3.2770    -0.0470     2.0180 H     1 <1>   0.1500 
 37 H       -2.6230     5.5610    -2.2570 H     1 <1>   0.0800 
 38 H       -2.8190     5.5140    -0.5090 H     1 <1>   0.0800 
 39 H       -4.0320     4.7660    -1.5640 H     1 <1>   0.0800 
 40 H       -4.4430     2.1070     2.2370 H     1 <1>   0.1500 
 41 H        5.2410     3.4780     2.1170 H     1 <1>   0.1500 
 42 H        5.7970     6.7630    -1.3590 H     1 <1>   0.1500 
 43 H        7.2050     5.0120     2.2550 H     1 <1>   0.1500 
 44 H        7.4490     6.6940     0.4350 H     1 <1>   0.1500 
@<TRIPOS>BOND
  1   1   2  2   
  2   2   3  am  
  3   2   4  1   
  4   3   5  1   
  5   3   6  1   
  6   4   7  1   
  7   4  24  1   
  8   4  25  1   
  9   5   8  1   
 10   5  26  1   
 11   5  27  1   
 12   6   9  1   
 13   6  28  1   
 14   6  29  1   
 15   7  10  ar  
 16   7  11  ar  
 17   8  12  1   
 18   8  30  1   
 19   8  31  1   
 20   9  12  1   
 21   9  32  1   
 22   9  33  1   
 23  10  13  1   
 24  10  14  ar  
 25  11  15  ar  
 26  11  34  1   
 27  12  16  1   
 28  13  17  1   
 29  14  18  ar  
 30  14  35  1   
 31  15  18  ar  
 32  15  36  1   
 33  16  19  ar  
 34  16  20  ar  
 35  17  37  1   
 36  17  38  1   
 37  17  39  1   
 38  18  40  1   
 39  19  21  ar  
 40  20  22  ar  
 41  20  41  1   
 42  21  23  ar  
 43  21  42  1   
 44  22  23  ar  
 45  22  43  1   
 46  23  44  1   
@<TRIPOS>SUBSTRUCTURE
  1 ****   5 GROUP 4 **** **** 0

# MOE 2024.06 (io_trps.svl 2023.06)
