@<TRIPOS>MOLECULE
8-(4-Ethyl-piperazin-1-yl)-7-(2-hydroxy-2-phenyl-ethyl)-1,3-dimethyl-3,7-dihydro
60 63 1 0 0 
SMALL
USER_CHARGES


@<TRIPOS>ATOM
  1 O        1.3280     3.0970     0.3610 O.2   1 <1>  -0.5740 
  2 C        2.4500     3.0590    -0.1000 C.2   1 <1>   0.6870 
  3 N        2.8540     4.0060    -1.0330 N.am  1 <1>  -0.4250 
  4 N        3.3270     2.0610     0.3050 N.am  1 <1>  -0.4410 
  5 C        4.1310     3.9780    -1.5760 C.2   1 <1>   0.7000 
  6 C        1.8910     5.0720    -1.4480 C.3   1 <1>   0.0530 
  7 C        4.6190     2.0990    -0.1810 C.2   1 <1>   0.4210 
  8 C        2.8910     1.0280     1.2910 C.3   1 <1>   0.0530 
  9 O        4.4480     4.7550    -2.4630 O.2   1 <1>  -0.5740 
 10 C        5.0590     3.0030    -1.0800 C.2   1 <1>   0.2720 
 11 N        5.6570     1.2910     0.1620 N.pl3 1 <1>  -0.7030 
 12 N        6.4390     2.7460    -1.2660 N.pl3 1 <1>  -0.7670 
 13 C        6.7430     1.6910    -0.4990 C.cat 1 <1>   1.0690 
 14 C        7.3490     3.8590    -1.7180 C.3   1 <1>   0.3490 
 15 N        7.9450     1.0780    -0.3650 N.pl3 1 <1>  -0.5960 
 16 C        7.8450     4.7450    -0.5440 C.3   1 <1>   0.3380 
 17 C        8.9510     0.9510    -1.4690 C.3   1 <1>   0.1610 
 18 C        8.3980     0.4450     0.9170 C.3   1 <1>   0.1610 
 19 O        8.7650     4.0430     0.2360 O.3   1 <1>  -0.6830 
 20 C        6.6830     5.1980     0.3400 C.ar  1 <1>  -0.1500 
 21 C       10.3440     1.4630    -1.0390 C.3   1 <1>   0.3380 
 22 C        9.7960     0.9580     1.3340 C.3   1 <1>   0.3380 
 23 C        5.9140     6.2740    -0.0810 C.ar  1 <1>  -0.1560 
 24 C        6.3350     4.5510     1.5230 C.ar  1 <1>  -0.1560 
 25 N       10.8140     0.8150     0.2360 N.4   1 <1>  -0.9610 
 26 C        4.8090     6.6800     0.6450 C.ar  1 <1>  -0.1560 
 27 C        5.2290     4.9560     2.2490 C.ar  1 <1>  -0.1560 
 28 C       12.1210     1.3710     0.6810 C.3   1 <1>   0.3380 
 29 C        4.4620     6.0170     1.8070 C.ar  1 <1>  -0.1560 
 30 C       13.2260     0.8850    -0.2480 C.3   1 <1>  -0.2460 
 31 H        1.2350     4.6880    -2.2090 H     1 <1>   0.0730 
 32 H        2.4100     5.9330    -1.8320 H     1 <1>   0.0730 
 33 H        1.2990     5.3880    -0.6050 H     1 <1>   0.0730 
 34 H        1.8250     0.8790     1.2310 H     1 <1>   0.0730 
 35 H        3.1340     1.3530     2.2880 H     1 <1>   0.0730 
 36 H        3.3680     0.0860     1.0890 H     1 <1>   0.0730 
 37 H        5.5910     0.4870     0.7770 H     1 <1>   0.4450 
 38 H        6.8220     4.4900    -2.4110 H     1 <1>   0.0730 
 39 H        8.1970     3.4780    -2.2510 H     1 <1>   0.0730 
 40 H        8.3570     5.6060    -0.9400 H     1 <1>   0.0730 
 41 H        8.6240     1.4680    -2.3520 H     1 <1>   0.0730 
 42 H        9.0380    -0.0880    -1.7400 H     1 <1>   0.0730 
 43 H        8.4320    -0.6250     0.7970 H     1 <1>   0.0730 
 44 H        7.7060     0.6670     1.7120 H     1 <1>   0.0730 
 45 H        9.0070     4.6350     0.9830 H     1 <1>   0.3950 
 46 H       10.2980     2.5310    -0.9020 H     1 <1>   0.0730 
 47 H       11.0490     1.2640    -1.8290 H     1 <1>   0.0730 
 48 H       10.1270     0.4180     2.2060 H     1 <1>   0.0730 
 49 H        9.7120     1.9980     1.6060 H     1 <1>   0.0730 
 50 H        6.1550     6.8080    -0.9860 H     1 <1>   0.1440 
 51 H        6.9100     3.7250     1.8990 H     1 <1>   0.1440 
 52 H       10.9730    -0.1880     0.0590 H     1 <1>   0.4450 
 53 H        4.2170     7.5140     0.3060 H     1 <1>   0.1440 
 54 H        4.9610     4.4560     3.1640 H     1 <1>   0.1440 
 55 H       12.3380     1.0330     1.6830 H     1 <1>   0.0730 
 56 H       12.0870     2.4490     0.6890 H     1 <1>   0.0730 
 57 H        3.6000     6.3350     2.3710 H     1 <1>   0.1440 
 58 H       13.2570    -0.1900    -0.2810 H     1 <1>   0.0730 
 59 H       14.1740     1.2280     0.1300 H     1 <1>   0.0730 
 60 H       13.1140     1.2780    -1.2410 H     1 <1>   0.0730 
@<TRIPOS>BOND
  1   1   2  2   
  2   2   3  am  
  3   2   4  am  
  4   3   5  am  
  5   3   6  1   
  6   4   7  1   
  7   4   8  1   
  8   5   9  2   
  9   5  10  1   
 10   6  31  1   
 11   6  32  1   
 12   6  33  1   
 13   7  10  2   
 14   7  11  1   
 15   8  34  1   
 16   8  35  1   
 17   8  36  1   
 18  10  12  1   
 19  11  13  ar  
 20  11  37  1   
 21  12  13  ar  
 22  12  14  1   
 23  13  15  ar  
 24  14  16  1   
 25  14  38  1   
 26  14  39  1   
 27  15  17  1   
 28  15  18  1   
 29  16  19  1   
 30  16  20  1   
 31  16  40  1   
 32  17  21  1   
 33  17  41  1   
 34  17  42  1   
 35  18  22  1   
 36  18  43  1   
 37  18  44  1   
 38  19  45  1   
 39  20  23  ar  
 40  20  24  ar  
 41  21  25  1   
 42  21  46  1   
 43  21  47  1   
 44  22  25  1   
 45  22  48  1   
 46  22  49  1   
 47  23  26  ar  
 48  23  50  1   
 49  24  27  ar  
 50  24  51  1   
 51  25  28  1   
 52  25  52  1   
 53  26  29  ar  
 54  26  53  1   
 55  27  29  ar  
 56  27  54  1   
 57  28  30  1   
 58  28  55  1   
 59  28  56  1   
 60  29  57  1   
 61  30  58  1   
 62  30  59  1   
 63  30  60  1   
@<TRIPOS>SUBSTRUCTURE
  1 ****  12 GROUP 4 **** **** 0

# MOE 2024.06 (io_trps.svl 2023.06)
