@<TRIPOS>MOLECULE
(4-Oxo-thiazolidin-3-yl)-acetic acid
16 16 1 0 0 
SMALL
USER_CHARGES


@<TRIPOS>ATOM
  1 S        0.3580    -0.0490    -0.9450 S.3   1 <1>  -0.4600 
  2 C        1.6490     1.2190    -0.9850 C.3   1 <1>   0.3700 
  3 C        0.9890    -0.9700     0.4790 C.3   1 <1>   0.1310 
  4 N        2.4830     0.9230     0.2020 N.am  1 <1>  -0.6600 
  5 C        2.1760    -0.1650     0.9570 C.2   1 <1>   0.5690 
  6 C        3.6490     1.8530     0.4730 C.3   1 <1>   0.0340 
  7 O        2.7720    -0.4970     1.9560 O.2   1 <1>  -0.5700 
  8 C        4.2620     2.5650    -0.7390 C.2   1 <1>   0.9060 
  9 O        5.4480     2.3640    -1.0210 O.co2 1 <1>  -0.9000 
 10 O        3.5510     3.3300    -1.4080 O.co2 1 <1>  -0.9000 
 11 H        1.1910     2.1910    -0.9200 H     1 <1>   0.0800 
 12 H        2.2080     1.1160    -1.9010 H     1 <1>   0.0800 
 13 H        1.2860    -1.9470     0.1470 H     1 <1>   0.0800 
 14 H        0.2170    -1.0180     1.2230 H     1 <1>   0.0800 
 15 H        4.4340     1.2980     0.9520 H     1 <1>   0.0800 
 16 H        3.3240     2.6160     1.1520 H     1 <1>   0.0800 
@<TRIPOS>BOND
  1   1   2  1   
  2   1   3  1   
  3   2   4  1   
  4   2  11  1   
  5   2  12  1   
  6   3   5  1   
  7   3  13  1   
  8   3  14  1   
  9   4   5  am  
 10   4   6  1   
 11   5   7  2   
 12   6   8  1   
 13   6  15  1   
 14   6  16  1   
 15   8   9  ar  
 16   8  10  ar  
@<TRIPOS>SUBSTRUCTURE
  1 ****   4 GROUP 4 **** **** 0

# MOE 2024.06 (io_trps.svl 2023.06)
