@<TRIPOS>MOLECULE
2-[(E)-2-(4-sec-Butoxy-3-methoxy-phenyl)-vinyl]-6-hydroxy-5-nitro-3H-pyrimidin-4
44 45 1 0 0 
SMALL
USER_CHARGES


@<TRIPOS>ATOM
  1 O        2.0540    -0.5660     0.2220 O.2   1 <1>  -0.5200 
  2 N        1.5810    -1.2450    -0.7270 N.pl3 1 <1>   0.8360 
  3 O        1.0190    -0.6150    -1.6620 O.2   1 <1>  -0.5200 
  4 C        1.4550    -2.6090    -0.6220 C.2   1 <1>   0.2190 
  5 C        2.3990    -3.5190    -1.1180 C.2   1 <1>   0.0210 
  6 C        0.3340    -3.1380     0.0080 C.2   1 <1>   0.6160 
  7 O        3.4200    -3.1490    -1.6900 O.3   1 <1>  -0.8500 
  8 N        2.2300    -4.8770    -0.9890 N.2   1 <1>  -0.6210 
  9 O       -0.6020    -2.5050     0.5050 O.2   1 <1>  -0.5700 
 10 N        0.2270    -4.4960     0.1040 N.am  1 <1>  -0.4900 
 11 C        1.1820    -5.3390    -0.4000 C.2   1 <1>   0.4960 
 12 C        1.0010    -6.7540    -0.2640 C.2   1 <1>  -0.1360 
 13 C       -0.0040    -7.4410     0.3350 C.2   1 <1>  -0.1780 
 14 C       -0.1630    -8.8690     0.4540 C.ar  1 <1>   0.0280 
 15 C        0.6780    -9.7790    -0.1870 C.ar  1 <1>  -0.1500 
 16 C       -1.1930    -9.3900     1.2380 C.ar  1 <1>  -0.1500 
 17 C        0.5070   -11.1440    -0.0530 C.ar  1 <1>   0.0830 
 18 C       -1.3850   -10.7530     1.3680 C.ar  1 <1>  -0.1500 
 19 O        1.3960   -11.9530    -0.6800 O.3   1 <1>  -0.3630 
 20 C       -0.5530   -11.6430     0.7120 C.ar  1 <1>   0.0830 
 21 C        2.2680   -12.6800     0.1570 C.3   1 <1>   0.0400 
 22 O       -0.8130   -12.9650     0.8510 O.3   1 <1>  -0.3630 
 23 C       -1.1630   -13.7060    -0.3010 C.3   1 <1>   0.2000 
 24 C       -0.8690   -15.1810     0.0060 C.3   1 <1>  -0.1600 
 25 C       -2.6400   -13.4390    -0.6080 C.3   1 <1>  -0.2400 
 26 C       -1.0430   -16.1020    -1.2110 C.3   1 <1>  -0.2400 
 27 H       -0.6020    -4.8500     0.5610 H     1 <1>   0.3700 
 28 H        1.8130    -7.2880    -0.7200 H     1 <1>   0.1500 
 29 H       -0.8030    -6.8900     0.7950 H     1 <1>   0.1500 
 30 H        1.4870    -9.4340    -0.8020 H     1 <1>   0.1500 
 31 H       -1.8560    -8.7220     1.7570 H     1 <1>   0.1500 
 32 H       -2.1860   -11.1390     1.9730 H     1 <1>   0.1500 
 33 H        2.9370   -13.2460    -0.4650 H     1 <1>   0.0800 
 34 H        1.6950   -13.3440     0.7790 H     1 <1>   0.0800 
 35 H        2.8240   -11.9870     0.7630 H     1 <1>   0.0800 
 36 H       -0.5510   -13.3800    -1.1240 H     1 <1>   0.0800 
 37 H        0.1500   -15.2590     0.3440 H     1 <1>   0.0800 
 38 H       -1.5120   -15.5150     0.8020 H     1 <1>   0.0800 
 39 H       -3.2560   -13.7640     0.2110 H     1 <1>   0.0800 
 40 H       -2.9380   -13.9660    -1.4950 H     1 <1>   0.0800 
 41 H       -2.7990   -12.3900    -0.7810 H     1 <1>   0.0800 
 42 H       -0.4340   -15.7610    -2.0300 H     1 <1>   0.0800 
 43 H       -2.0700   -16.1310    -1.5280 H     1 <1>   0.0800 
 44 H       -0.7420   -17.1030    -0.9560 H     1 <1>   0.0800 
@<TRIPOS>BOND
  1   1   2  2   
  2   2   3  2   
  3   2   4  1   
  4   4   5  2   
  5   4   6  1   
  6   5   7  1   
  7   5   8  1   
  8   6   9  2   
  9   6  10  am  
 10   8  11  2   
 11  10  11  1   
 12  10  27  1   
 13  11  12  1   
 14  12  13  2   
 15  12  28  1   
 16  13  14  1   
 17  13  29  1   
 18  14  15  ar  
 19  14  16  ar  
 20  15  17  ar  
 21  15  30  1   
 22  16  18  ar  
 23  16  31  1   
 24  17  19  1   
 25  17  20  ar  
 26  18  20  ar  
 27  18  32  1   
 28  19  21  1   
 29  20  22  1   
 30  21  33  1   
 31  21  34  1   
 32  21  35  1   
 33  22  23  1   
 34  23  24  1   
 35  23  25  1   
 36  23  36  1   
 37  24  26  1   
 38  24  37  1   
 39  24  38  1   
 40  25  39  1   
 41  25  40  1   
 42  25  41  1   
 43  26  42  1   
 44  26  43  1   
 45  26  44  1   
@<TRIPOS>SUBSTRUCTURE
  1 ****  13 GROUP 4 **** **** 0

# MOE 2024.06 (io_trps.svl 2023.06)
