@<TRIPOS>MOLECULE
8-(4-Ethyl-piperazin-1-yl)-1,3-dimethyl-7-phenethyl-3,7-dihydro-purine-2,6-dione
59 62 1 0 0 
SMALL
USER_CHARGES


@<TRIPOS>ATOM
  1 O        1.1890     0.2550    -1.5080 O.2   1 <1>  -0.5740 
  2 C        1.9930     0.9370    -0.9070 C.2   1 <1>   0.6870 
  3 N        1.5530     1.9360    -0.0450 N.am  1 <1>  -0.4250 
  4 N        3.3520     0.7250    -1.0910 N.am  1 <1>  -0.4410 
  5 C        2.4520     2.7790     0.5940 C.2   1 <1>   0.7000 
  6 C        0.0820     2.1260     0.1540 C.3   1 <1>   0.0530 
  7 C        4.2340     1.5660    -0.4400 C.2   1 <1>   0.4210 
  8 C        3.8290    -0.3620    -1.9980 C.3   1 <1>   0.0530 
  9 O        2.0550     3.6940     1.2960 O.2   1 <1>  -0.5740 
 10 C        3.8540     2.5590     0.3880 C.2   1 <1>   0.2720 
 11 N        5.5900     1.5630    -0.5190 N.pl3 1 <1>  -0.7030 
 12 N        5.0400     3.1800     0.8400 N.pl3 1 <1>  -0.7670 
 13 C        6.0670     2.5350     0.2610 C.cat 1 <1>   1.0690 
 14 C        4.9850     4.5190     1.5100 C.3   1 <1>   0.3490 
 15 N        7.4000     2.7580     0.4050 N.pl3 1 <1>  -0.5960 
 16 C        4.7880     5.6390     0.4810 C.3   1 <1>  -0.0230 
 17 C        8.0170     3.3680     1.6310 C.3   1 <1>   0.1610 
 18 C        8.3620     2.5900    -0.7390 C.3   1 <1>   0.1610 
 19 C        5.9070     5.6690    -0.5510 C.ar  1 <1>  -0.1500 
 20 C        9.3670     2.7180     2.0130 C.3   1 <1>   0.3380 
 21 C        9.7000     1.9440    -0.3170 C.3   1 <1>   0.3380 
 22 C        5.7320     5.0850    -1.7980 C.ar  1 <1>  -0.1560 
 23 C        7.1060     6.3030    -0.2610 C.ar  1 <1>  -0.1560 
 24 N       10.3180     2.6480     0.8560 N.4   1 <1>  -0.9610 
 25 C        6.7460     5.1260    -2.7380 C.ar  1 <1>  -0.1560 
 26 C        8.1200     6.3460    -1.2020 C.ar  1 <1>  -0.1560 
 27 C       11.5970     2.0130     1.2750 C.3   1 <1>   0.3380 
 28 C        7.9410     5.7570    -2.4410 C.ar  1 <1>  -0.1560 
 29 C       12.6750     2.3040     0.2380 C.3   1 <1>  -0.2460 
 30 H       -0.3140     2.7320    -0.6420 H     1 <1>   0.0730 
 31 H       -0.1220     2.6060     1.0950 H     1 <1>   0.0730 
 32 H       -0.4210     1.1730     0.1480 H     1 <1>   0.0730 
 33 H        3.0970    -1.1520    -2.0550 H     1 <1>   0.0730 
 34 H        4.7450    -0.7880    -1.6330 H     1 <1>   0.0730 
 35 H        3.9810     0.0320    -2.9880 H     1 <1>   0.0730 
 36 H        6.1370     0.9090    -1.0660 H     1 <1>   0.4450 
 37 H        5.8830     4.7150     2.0610 H     1 <1>   0.0730 
 38 H        4.1750     4.5390     2.2200 H     1 <1>   0.0730 
 39 H        4.7600     6.5830     0.9970 H     1 <1>   0.0730 
 40 H        3.8340     5.5260    -0.0030 H     1 <1>   0.0730 
 41 H        7.3520     3.2530     2.4700 H     1 <1>   0.0730 
 42 H        8.1710     4.4200     1.4650 H     1 <1>   0.0730 
 43 H        8.5770     3.5600    -1.1510 H     1 <1>   0.0730 
 44 H        7.9250     2.0050    -1.5290 H     1 <1>   0.0730 
 45 H        9.1800     1.7220     2.3820 H     1 <1>   0.0730 
 46 H        9.8140     3.2830     2.8150 H     1 <1>   0.0730 
 47 H       10.3780     1.9700    -1.1550 H     1 <1>   0.0730 
 48 H        9.5290     0.9100    -0.0670 H     1 <1>   0.0730 
 49 H        4.7980     4.6150    -2.0550 H     1 <1>   0.1440 
 50 H        7.2510     6.7900     0.6880 H     1 <1>   0.1440 
 51 H       10.5530     3.6110     0.5690 H     1 <1>   0.4450 
 52 H        6.5990     4.6880    -3.7120 H     1 <1>   0.1440 
 53 H        9.0410     6.8580    -0.9810 H     1 <1>   0.1440 
 54 H       11.4700     0.9480     1.3900 H     1 <1>   0.0730 
 55 H       11.9120     2.4200     2.2230 H     1 <1>   0.0730 
 56 H        8.7220     5.8100    -3.1820 H     1 <1>   0.1440 
 57 H       12.4610     1.8330    -0.7030 H     1 <1>   0.0730 
 58 H       13.6120     1.9090     0.5900 H     1 <1>   0.0730 
 59 H       12.7980     3.3640     0.0970 H     1 <1>   0.0730 
@<TRIPOS>BOND
  1   1   2  2   
  2   2   3  am  
  3   2   4  am  
  4   3   5  am  
  5   3   6  1   
  6   4   7  1   
  7   4   8  1   
  8   5   9  2   
  9   5  10  1   
 10   6  30  1   
 11   6  31  1   
 12   6  32  1   
 13   7  10  2   
 14   7  11  1   
 15   8  33  1   
 16   8  34  1   
 17   8  35  1   
 18  10  12  1   
 19  11  13  ar  
 20  11  36  1   
 21  12  13  ar  
 22  12  14  1   
 23  13  15  ar  
 24  14  16  1   
 25  14  37  1   
 26  14  38  1   
 27  15  17  1   
 28  15  18  1   
 29  16  19  1   
 30  16  39  1   
 31  16  40  1   
 32  17  20  1   
 33  17  41  1   
 34  17  42  1   
 35  18  21  1   
 36  18  43  1   
 37  18  44  1   
 38  19  22  ar  
 39  19  23  ar  
 40  20  24  1   
 41  20  45  1   
 42  20  46  1   
 43  21  24  1   
 44  21  47  1   
 45  21  48  1   
 46  22  25  ar  
 47  22  49  1   
 48  23  26  ar  
 49  23  50  1   
 50  24  27  1   
 51  24  51  1   
 52  25  28  ar  
 53  25  52  1   
 54  26  28  ar  
 55  26  53  1   
 56  27  29  1   
 57  27  54  1   
 58  27  55  1   
 59  28  56  1   
 60  29  57  1   
 61  29  58  1   
 62  29  59  1   
@<TRIPOS>SUBSTRUCTURE
  1 ****  13 GROUP 4 **** **** 0

# MOE 2024.06 (io_trps.svl 2023.06)
