@<TRIPOS>MOLECULE
Azepan-1-yl-[4-chloro-3-(morpholine-4-sulfonyl)-phenyl]-methanone
48 50 1 0 0 
SMALL
USER_CHARGES


@<TRIPOS>ATOM
  1 CL       0.1160     0.8370    -1.3350 Cl    1 <1>  -0.1770 
  2 C        1.4810     0.0670    -0.5690 C.ar  1 <1>   0.1770 
  3 C        1.6550    -1.3130    -0.5720 C.ar  1 <1>  -0.0090 
  4 C        2.3800     0.9100     0.0600 C.ar  1 <1>  -0.1500 
  5 S        0.5020    -2.4670    -1.3630 S.o2  1 <1>   1.4470 
  6 C        2.7630    -1.8100     0.1050 C.ar  1 <1>  -0.1500 
  7 C        3.4760     0.3830     0.7140 C.ar  1 <1>  -0.1500 
  8 O        1.2360    -3.6770    -1.6620 O.2   1 <1>  -0.6500 
  9 O       -0.2710    -1.8650    -2.4250 O.2   1 <1>  -0.6500 
 10 N       -0.5760    -2.8600    -0.1150 N.am  1 <1>  -0.8490 
 11 C        3.6890    -0.9920     0.7500 C.ar  1 <1>   0.0860 
 12 C       -1.5750    -1.8080     0.1400 C.3   1 <1>   0.1960 
 13 C       -1.2700    -4.1300    -0.3840 C.3   1 <1>   0.1960 
 14 C        4.8250    -1.5620     1.4440 C.2   1 <1>   0.5440 
 15 C       -2.5410    -2.2200     1.2660 C.3   1 <1>   0.1200 
 16 C       -2.2480    -4.4840     0.7510 C.3   1 <1>   0.1200 
 17 O        4.6190    -2.2020     2.4570 O.2   1 <1>  -0.5700 
 18 N        6.1190    -1.4040     0.9870 N.am  1 <1>  -0.6600 
 19 O       -3.1560    -3.4400     0.9640 O.3   1 <1>  -0.5600 
 20 C        7.2690    -1.9160     1.7850 C.3   1 <1>   0.1400 
 21 C        6.4580    -0.8170    -0.3380 C.3   1 <1>   0.1400 
 22 C        7.6190    -3.3380     1.3360 C.3   1 <1>  -0.1600 
 23 C        7.0360    -1.8690    -1.2930 C.3   1 <1>  -0.1600 
 24 C        8.5410    -3.4410     0.1070 C.3   1 <1>  -0.1600 
 25 C        8.4630    -2.3030    -0.9240 C.3   1 <1>  -0.1600 
 26 H        2.2150     1.9740     0.0390 H     1 <1>   0.1500 
 27 H        2.9230    -2.8760     0.1440 H     1 <1>   0.1500 
 28 H        4.1760     1.0330     1.2120 H     1 <1>   0.1500 
 29 H       -2.1470    -1.6070    -0.7520 H     1 <1>   0.0800 
 30 H       -1.0800    -0.9000     0.4330 H     1 <1>   0.0800 
 31 H       -0.5490    -4.9260    -0.4730 H     1 <1>   0.0800 
 32 H       -1.8120    -4.0660    -1.3130 H     1 <1>   0.0800 
 33 H       -3.3160    -1.4830     1.3820 H     1 <1>   0.0800 
 34 H       -2.0140    -2.3210     2.1990 H     1 <1>   0.0800 
 35 H       -1.7120    -4.6680     1.6660 H     1 <1>   0.0800 
 36 H       -2.8120    -5.3630     0.4960 H     1 <1>   0.0800 
 37 H        6.9960    -1.9350     2.8260 H     1 <1>   0.0800 
 38 H        8.1180    -1.2610     1.6870 H     1 <1>   0.0800 
 39 H        7.1660    -0.0180    -0.1990 H     1 <1>   0.0800 
 40 H        5.5830    -0.3930    -0.7950 H     1 <1>   0.0800 
 41 H        6.7020    -3.8700     1.1490 H     1 <1>   0.0800 
 42 H        8.1020    -3.8400     2.1550 H     1 <1>   0.0800 
 43 H        7.0730    -1.4220    -2.2710 H     1 <1>   0.0800 
 44 H        6.3780    -2.7180    -1.3560 H     1 <1>   0.0800 
 45 H        8.3280    -4.3730    -0.3880 H     1 <1>   0.0800 
 46 H        9.5600    -3.4990     0.4500 H     1 <1>   0.0800 
 47 H        9.0170    -1.4530    -0.5660 H     1 <1>   0.0800 
 48 H        8.9600    -2.6410    -1.8180 H     1 <1>   0.0800 
@<TRIPOS>BOND
  1   1   2  1   
  2   2   3  ar  
  3   2   4  ar  
  4   3   5  1   
  5   3   6  ar  
  6   4   7  ar  
  7   4  26  1   
  8   5   8  2   
  9   5   9  2   
 10   5  10  am  
 11   6  11  ar  
 12   6  27  1   
 13   7  11  ar  
 14   7  28  1   
 15  10  12  1   
 16  10  13  1   
 17  11  14  1   
 18  12  15  1   
 19  12  29  1   
 20  12  30  1   
 21  13  16  1   
 22  13  31  1   
 23  13  32  1   
 24  14  17  2   
 25  14  18  am  
 26  15  19  1   
 27  15  33  1   
 28  15  34  1   
 29  16  19  1   
 30  16  35  1   
 31  16  36  1   
 32  18  20  1   
 33  18  21  1   
 34  20  22  1   
 35  20  37  1   
 36  20  38  1   
 37  21  23  1   
 38  21  39  1   
 39  21  40  1   
 40  22  24  1   
 41  22  41  1   
 42  22  42  1   
 43  23  25  1   
 44  23  43  1   
 45  23  44  1   
 46  24  25  1   
 47  24  45  1   
 48  24  46  1   
 49  25  47  1   
 50  25  48  1   
@<TRIPOS>SUBSTRUCTURE
  1 ****   6 GROUP 4 **** **** 0

# MOE 2024.06 (io_trps.svl 2023.06)
