@<TRIPOS>MOLECULE
[3-(3,4-Dichloro-phenyl)-2,5-dioxo-imidazolidin-1-yl]-acetic acid ethyl ester
33 34 1 0 0 
SMALL
USER_CHARGES


@<TRIPOS>ATOM
  1 CL      -1.0740     0.8780    -1.2090 Cl    1 <1>  -0.1770 
  2 C       -2.2280    -0.4340    -1.1440 C.ar  1 <1>   0.1770 
  3 C       -2.0040    -1.6080    -1.8440 C.ar  1 <1>   0.1770 
  4 C       -3.3680    -0.2760    -0.3810 C.ar  1 <1>  -0.1500 
  5 CL      -0.5610    -1.8170    -2.8120 Cl    1 <1>  -0.1770 
  6 C       -2.9260    -2.6350    -1.7840 C.ar  1 <1>  -0.1500 
  7 C       -4.3090    -1.3010    -0.3040 C.ar  1 <1>   0.1170 
  8 C       -4.0690    -2.4770    -1.0170 C.ar  1 <1>  -0.1500 
  9 N       -5.4690    -1.1540     0.4780 N.am  1 <1>  -0.4770 
 10 C       -6.7310    -1.6620     0.2720 C.2   1 <1>   0.6900 
 11 C       -5.4890    -0.4110     1.7700 C.3   1 <1>   0.2010 
 12 O       -7.0860    -2.2940    -0.7010 O.2   1 <1>  -0.5700 
 13 N       -7.5720    -1.3620     1.3020 N.am  1 <1>  -0.4200 
 14 C       -6.9230    -0.6030     2.2160 C.2   1 <1>   0.5690 
 15 C       -9.0490    -1.5260     1.2380 C.3   1 <1>   0.2010 
 16 O       -7.4010    -0.1340     3.2180 O.2   1 <1>  -0.5700 
 17 C       -9.7150    -0.5420     0.2830 C.2   1 <1>   0.6590 
 18 O      -10.7890    -0.7790    -0.2080 O.2   1 <1>  -0.5700 
 19 O       -9.0610     0.5880     0.0300 O.3   1 <1>  -0.4300 
 20 C       -9.5730     1.5550    -0.8560 C.3   1 <1>   0.1200 
 21 C       -8.5520     2.6830    -0.9580 C.3   1 <1>  -0.2400 
 22 H       -3.5150     0.6500     0.1400 H     1 <1>   0.1500 
 23 H       -2.7510    -3.5450    -2.3310 H     1 <1>   0.1500 
 24 H       -4.7830    -3.2810    -0.9740 H     1 <1>   0.1500 
 25 H       -5.2830     0.6330     1.6220 H     1 <1>   0.0800 
 26 H       -4.8060    -0.8490     2.4750 H     1 <1>   0.0800 
 27 H       -9.4660    -1.3850     2.2180 H     1 <1>   0.0800 
 28 H       -9.2780    -2.5250     0.9130 H     1 <1>   0.0800 
 29 H      -10.5110     1.9120    -0.4670 H     1 <1>   0.0800 
 30 H       -9.7320     1.0890    -1.8150 H     1 <1>   0.0800 
 31 H       -8.3940     3.1300     0.0070 H     1 <1>   0.0800 
 32 H       -8.9150     3.4400    -1.6300 H     1 <1>   0.0800 
 33 H       -7.6200     2.3060    -1.3400 H     1 <1>   0.0800 
@<TRIPOS>BOND
  1   1   2  1   
  2   2   3  ar  
  3   2   4  ar  
  4   3   5  1   
  5   3   6  ar  
  6   4   7  ar  
  7   4  22  1   
  8   6   8  ar  
  9   6  23  1   
 10   7   8  ar  
 11   7   9  1   
 12   8  24  1   
 13   9  10  am  
 14   9  11  1   
 15  10  12  2   
 16  10  13  am  
 17  11  14  1   
 18  11  25  1   
 19  11  26  1   
 20  13  14  am  
 21  13  15  1   
 22  14  16  2   
 23  15  17  1   
 24  15  27  1   
 25  15  28  1   
 26  17  18  2   
 27  17  19  1   
 28  19  20  1   
 29  20  21  1   
 30  20  29  1   
 31  20  30  1   
 32  21  31  1   
 33  21  32  1   
 34  21  33  1   
@<TRIPOS>SUBSTRUCTURE
  1 ****   9 GROUP 4 **** **** 0

# MOE 2024.06 (io_trps.svl 2023.06)
