@<TRIPOS>MOLECULE
N-(1-Methyl-butyl)-2-(1,1,3-trioxo-1,3-dihydro-1lambda*6*-benzo[d]isothiazol-2-y
39 40 1 0 0 
SMALL
USER_CHARGES


@<TRIPOS>ATOM
  1 S        0.4280     0.0520    -1.1340 S.o2  1 <1>   1.4470 
  2 O       -0.5200     1.1360    -1.0990 O.2   1 <1>  -0.6500 
  3 O        1.3030    -0.1930    -2.2500 O.2   1 <1>  -0.6500 
  4 N        1.4180     0.2130     0.2590 N.am  1 <1>  -0.7300 
  5 C       -0.2770    -1.4790    -0.5320 C.ar  1 <1>  -0.0090 
  6 C        1.3520    -0.8900     1.0410 C.2   1 <1>   0.7200 
  7 C        2.5020     1.2360     0.2740 C.3   1 <1>   0.2570 
  8 C        0.3420    -1.8460     0.6480 C.ar  1 <1>   0.0860 
  9 C       -1.2790    -2.2620    -1.0820 C.ar  1 <1>  -0.1500 
 10 O        2.1210    -1.0470     1.9680 O.2   1 <1>  -0.5700 
 11 C        3.8480     0.7330    -0.2550 C.2   1 <1>   0.5690 
 12 C       -0.0430    -3.0200     1.2890 C.ar  1 <1>  -0.1500 
 13 C       -1.6610    -3.4290    -0.4390 C.ar  1 <1>  -0.1500 
 14 O        4.3930     1.3630    -1.1300 O.2   1 <1>  -0.5700 
 15 N        4.3910    -0.3880     0.3020 N.am  1 <1>  -0.7300 
 16 C       -1.0440    -3.8060     0.7440 C.ar  1 <1>  -0.1500 
 17 C        5.6280    -1.0960    -0.0770 C.3   1 <1>   0.2200 
 18 C        6.8440    -0.1820     0.1340 C.3   1 <1>  -0.1600 
 19 C        5.4890    -1.6130    -1.5100 C.3   1 <1>  -0.2400 
 20 C        8.1840    -0.9270     0.0260 C.3   1 <1>  -0.1600 
 21 C        9.3570     0.0070     0.3340 C.3   1 <1>  -0.2400 
 22 H        2.6470     1.5760     1.2830 H     1 <1>   0.0800 
 23 H        2.1970     2.0820    -0.3170 H     1 <1>   0.0800 
 24 H       -1.7560    -1.9670    -2.0030 H     1 <1>   0.1500 
 25 H        0.4400    -3.3090     2.2080 H     1 <1>   0.1500 
 26 H       -2.4400    -4.0450    -0.8580 H     1 <1>   0.1500 
 27 H        3.8710    -0.8260     1.0730 H     1 <1>   0.3700 
 28 H       -1.3450    -4.7150     1.2390 H     1 <1>   0.1500 
 29 H        5.7270    -1.9450     0.5790 H     1 <1>   0.0800 
 30 H        6.7740     0.2570     1.1140 H     1 <1>   0.0800 
 31 H        6.8250     0.6140    -0.5900 H     1 <1>   0.0800 
 32 H        5.4740    -0.7940    -2.2070 H     1 <1>   0.0800 
 33 H        4.5810    -2.1790    -1.6140 H     1 <1>   0.0800 
 34 H        6.3140    -2.2540    -1.7590 H     1 <1>   0.0800 
 35 H        8.3070    -1.3210    -0.9690 H     1 <1>   0.0800 
 36 H        8.1990    -1.7520     0.7180 H     1 <1>   0.0800 
 37 H        9.3720     0.8300    -0.3600 H     1 <1>   0.0800 
 38 H       10.2860    -0.5280     0.2500 H     1 <1>   0.0800 
 39 H        9.2750     0.3980     1.3330 H     1 <1>   0.0800 
@<TRIPOS>BOND
  1   1   2  2   
  2   1   3  2   
  3   1   4  am  
  4   1   5  1   
  5   4   6  am  
  6   4   7  1   
  7   5   8  ar  
  8   5   9  ar  
  9   6   8  1   
 10   6  10  2   
 11   7  11  1   
 12   7  22  1   
 13   7  23  1   
 14   8  12  ar  
 15   9  13  ar  
 16   9  24  1   
 17  11  14  2   
 18  11  15  am  
 19  12  16  ar  
 20  12  25  1   
 21  13  16  ar  
 22  13  26  1   
 23  15  17  1   
 24  15  27  1   
 25  16  28  1   
 26  17  18  1   
 27  17  19  1   
 28  17  29  1   
 29  18  20  1   
 30  18  30  1   
 31  18  31  1   
 32  19  32  1   
 33  19  33  1   
 34  19  34  1   
 35  20  21  1   
 36  20  35  1   
 37  20  36  1   
 38  21  37  1   
 39  21  38  1   
 40  21  39  1   
@<TRIPOS>SUBSTRUCTURE
  1 ****   4 GROUP 4 **** **** 0

# MOE 2024.06 (io_trps.svl 2023.06)
