@<TRIPOS>MOLECULE
N-(3,5-Dimethyl-phenyl)-N-(1-methyl-2-oxo-2-pyrrolidin-1-yl-ethyl)-methanesulfon
46 47 1 0 0 
SMALL
USER_CHARGES


@<TRIPOS>ATOM
  1 S        0.6970    -0.0020     0.6650 S.o2  1 <1>   1.3330 
  2 O        1.5730    -0.7860    -0.1730 O.2   1 <1>  -0.6500 
  3 O        1.1930     0.5740     1.8900 O.2   1 <1>  -0.6500 
  4 N        0.0760     1.2710    -0.3210 N.am  1 <1>  -0.6930 
  5 C       -0.7570    -0.9710     1.0040 C.3   1 <1>  -0.1350 
  6 C       -1.0060     2.0170     0.1380 C.ar  1 <1>   0.1990 
  7 C        1.0910     1.9260    -1.2080 C.3   1 <1>   0.3370 
  8 C       -2.2420     1.8870    -0.4810 C.ar  1 <1>  -0.1500 
  9 C       -0.8910     2.8750     1.2240 C.ar  1 <1>  -0.1500 
 10 C        1.9870     2.9750    -0.4940 C.2   1 <1>   0.5690 
 11 C        0.3850     2.5070    -2.4440 C.3   1 <1>  -0.2400 
 12 C       -3.3450     2.5910    -0.0290 C.ar  1 <1>  -0.1440 
 13 C       -1.9840     3.5850     1.6890 C.ar  1 <1>  -0.1440 
 14 O        1.5700     4.1080    -0.3700 O.2   1 <1>  -0.5700 
 15 N        3.2450     2.6580    -0.0400 N.am  1 <1>  -0.6600 
 16 C       -3.2090     3.4390     1.0580 C.ar  1 <1>  -0.1500 
 17 C       -4.6940     2.4500    -0.7100 C.3   1 <1>  -0.0970 
 18 C       -1.8360     4.5240     2.8710 C.3   1 <1>  -0.0970 
 19 C        3.9290     1.3450    -0.0940 C.3   1 <1>   0.1400 
 20 C        4.0940     3.6570     0.6470 C.3   1 <1>   0.1400 
 21 C        5.3830     1.6580     0.2320 C.3   1 <1>  -0.1600 
 22 C        5.3070     2.8790     1.1440 C.3   1 <1>  -0.1600 
 23 H       -0.4970    -1.8320     1.5870 H     1 <1>   0.0800 
 24 H       -1.2060    -1.2980     0.0860 H     1 <1>   0.0800 
 25 H       -1.4720    -0.3880     1.5510 H     1 <1>   0.0800 
 26 H        1.7400     1.1620    -1.5870 H     1 <1>   0.0800 
 27 H       -2.3270     1.2270    -1.3240 H     1 <1>   0.1500 
 28 H        0.0670     2.9870     1.7010 H     1 <1>   0.1500 
 29 H       -0.2630     3.3180    -2.1630 H     1 <1>   0.0800 
 30 H       -0.1840     1.7430    -2.9410 H     1 <1>   0.0800 
 31 H        1.1190     2.8900    -3.1280 H     1 <1>   0.0800 
 32 H       -4.0600     3.9930     1.4130 H     1 <1>   0.1500 
 33 H       -4.6600     1.7010    -1.4810 H     1 <1>   0.0800 
 34 H       -4.9760     3.3870    -1.1540 H     1 <1>   0.0800 
 35 H       -5.4400     2.1670     0.0100 H     1 <1>   0.0800 
 36 H       -1.0190     4.2130     3.4980 H     1 <1>   0.0800 
 37 H       -2.7340     4.5310     3.4610 H     1 <1>   0.0800 
 38 H       -1.6400     5.5210     2.5190 H     1 <1>   0.0800 
 39 H        3.8340     0.8790    -1.0590 H     1 <1>   0.0800 
 40 H        3.5230     0.7030     0.6680 H     1 <1>   0.0800 
 41 H        3.5560     4.1180     1.4590 H     1 <1>   0.0800 
 42 H        4.3890     4.4120    -0.0620 H     1 <1>   0.0800 
 43 H        5.9010     1.9090    -0.6770 H     1 <1>   0.0800 
 44 H        5.8740     0.8240     0.7010 H     1 <1>   0.0800 
 45 H        5.1260     2.5660     2.1580 H     1 <1>   0.0800 
 46 H        6.2030     3.4730     1.1150 H     1 <1>   0.0800 
@<TRIPOS>BOND
  1   1   2  2   
  2   1   3  2   
  3   1   4  am  
  4   1   5  1   
  5   4   6  1   
  6   4   7  1   
  7   5  23  1   
  8   5  24  1   
  9   5  25  1   
 10   6   8  ar  
 11   6   9  ar  
 12   7  10  1   
 13   7  11  1   
 14   7  26  1   
 15   8  12  ar  
 16   8  27  1   
 17   9  13  ar  
 18   9  28  1   
 19  10  14  2   
 20  10  15  am  
 21  11  29  1   
 22  11  30  1   
 23  11  31  1   
 24  12  16  ar  
 25  12  17  1   
 26  13  16  ar  
 27  13  18  1   
 28  15  19  1   
 29  15  20  1   
 30  16  32  1   
 31  17  33  1   
 32  17  34  1   
 33  17  35  1   
 34  18  36  1   
 35  18  37  1   
 36  18  38  1   
 37  19  21  1   
 38  19  39  1   
 39  19  40  1   
 40  20  22  1   
 41  20  41  1   
 42  20  42  1   
 43  21  22  1   
 44  21  43  1   
 45  21  44  1   
 46  22  45  1   
 47  22  46  1   
@<TRIPOS>SUBSTRUCTURE
  1 ****   4 GROUP 4 **** **** 0

# MOE 2024.06 (io_trps.svl 2023.06)
