@<TRIPOS>MOLECULE
1-(3-Chloro-phenyl)-3-(2-morpholin-4-yl-ethyl)-urea
38 39 1 0 0 
SMALL
USER_CHARGES


@<TRIPOS>ATOM
  1 CL       1.5590    -0.0460     2.9340 Cl    1 <1>  -0.1770 
  2 C        1.6870    -1.5680     2.0900 C.ar  1 <1>   0.1770 
  3 C        2.5990    -1.6970     1.0630 C.ar  1 <1>  -0.1500 
  4 C        0.8690    -2.6170     2.4650 C.ar  1 <1>  -0.1500 
  5 C        2.7150    -2.9060     0.3840 C.ar  1 <1>   0.1170 
  6 C        0.9700    -3.8210     1.7900 C.ar  1 <1>  -0.1500 
  7 N        3.6200    -3.0990    -0.6690 N.am  1 <1>  -0.5470 
  8 C        1.8840    -3.9590     0.7590 C.ar  1 <1>  -0.1500 
  9 C        4.8320    -2.5210    -0.8900 C.2   1 <1>   0.6900 
 10 O        5.3340    -1.7420    -0.1060 O.2   1 <1>  -0.5700 
 11 N        5.5250    -2.8670    -2.0030 N.am  1 <1>  -0.7300 
 12 C        6.7420    -2.1540    -2.4970 C.3   1 <1>   0.1400 
 13 C        8.0370    -2.6390    -1.8080 C.3   1 <1>   0.3430 
 14 N        8.0140    -2.4210    -0.3300 N.4   1 <1>  -0.9590 
 15 C        8.2760    -1.0100     0.1010 C.3   1 <1>   0.3430 
 16 C        8.8470    -3.4040     0.4430 C.3   1 <1>   0.3430 
 17 C        8.0480    -0.8480     1.6240 C.3   1 <1>   0.1200 
 18 C        9.1390    -2.9330     1.8840 C.3   1 <1>   0.1200 
 19 O        8.1390    -2.0630     2.3250 O.3   1 <1>  -0.5600 
 20 H        3.2090    -0.8540     0.8010 H     1 <1>   0.1500 
 21 H        0.1670    -2.4880     3.2700 H     1 <1>   0.1500 
 22 H        0.3390    -4.6480     2.0690 H     1 <1>   0.1500 
 23 H        3.3750    -3.8490    -1.3080 H     1 <1>   0.3700 
 24 H        1.9530    -4.9010     0.2470 H     1 <1>   0.1500 
 25 H        5.0230    -3.4040    -2.7130 H     1 <1>   0.3700 
 26 H        6.6240    -1.0940    -2.3430 H     1 <1>   0.0800 
 27 H        6.8300    -2.3170    -3.5570 H     1 <1>   0.0800 
 28 H        8.8850    -2.1310    -2.2350 H     1 <1>   0.0800 
 29 H        8.1450    -3.6910    -2.0130 H     1 <1>   0.0800 
 30 H        7.0270    -2.5600    -0.0210 H     1 <1>   0.4500 
 31 H        7.6210    -0.3320    -0.4200 H     1 <1>   0.0800 
 32 H        9.2920    -0.7390    -0.1330 H     1 <1>   0.0800 
 33 H        9.7860    -3.5730    -0.0580 H     1 <1>   0.0800 
 34 H        8.3290    -4.3480     0.4870 H     1 <1>   0.0800 
 35 H        7.0610    -0.4550     1.8010 H     1 <1>   0.0800 
 36 H        8.7620    -0.1590     2.0400 H     1 <1>   0.0800 
 37 H       10.0850    -2.4210     1.9390 H     1 <1>   0.0800 
 38 H        9.1700    -3.7750     2.5540 H     1 <1>   0.0800 
@<TRIPOS>BOND
  1   1   2  1   
  2   2   3  ar  
  3   2   4  ar  
  4   3   5  ar  
  5   3  20  1   
  6   4   6  ar  
  7   4  21  1   
  8   5   7  1   
  9   5   8  ar  
 10   6   8  ar  
 11   6  22  1   
 12   7   9  am  
 13   7  23  1   
 14   8  24  1   
 15   9  10  2   
 16   9  11  am  
 17  11  12  1   
 18  11  25  1   
 19  12  13  1   
 20  12  26  1   
 21  12  27  1   
 22  13  14  1   
 23  13  28  1   
 24  13  29  1   
 25  14  15  1   
 26  14  16  1   
 27  14  30  1   
 28  15  17  1   
 29  15  31  1   
 30  15  32  1   
 31  16  18  1   
 32  16  33  1   
 33  16  34  1   
 34  17  19  1   
 35  17  35  1   
 36  17  36  1   
 37  18  19  1   
 38  18  37  1   
 39  18  38  1   
@<TRIPOS>SUBSTRUCTURE
  1 ****  10 GROUP 4 **** **** 0

# MOE 2024.06 (io_trps.svl 2023.06)
