@<TRIPOS>MOLECULE
4-Aminomethyl-1-methyl-piperidin-4-ol
28 28 1 0 0 
SMALL
USER_CHARGES


@<TRIPOS>ATOM
  1 O        0.6690    -0.8940     1.1940 O.3   1 <1>  -0.6800 
  2 C        1.0560    -1.1040    -0.1240 C.3   1 <1>   0.2800 
  3 C        2.2240    -2.1020    -0.0780 C.3   1 <1>  -0.1600 
  4 C       -0.1300    -1.7350    -0.8710 C.3   1 <1>  -0.1600 
  5 C        1.4850     0.2710    -0.7200 C.3   1 <1>   0.3430 
  6 C        1.7940    -3.4520     0.5040 C.3   1 <1>   0.3430 
  7 C       -0.5170    -3.1040    -0.2990 C.3   1 <1>   0.3430 
  8 N        2.3140     1.0580     0.2480 N.4   1 <1>  -0.8530 
  9 N        0.6640    -4.0150    -0.2920 N.4   1 <1>  -0.9590 
 10 C        0.2770    -5.3580     0.2480 C.3   1 <1>   0.2630 
 11 H       -0.2540    -0.5610     1.2670 H     1 <1>   0.4000 
 12 H        3.0240    -1.7110     0.5260 H     1 <1>   0.0800 
 13 H        2.6170    -2.2610    -1.0660 H     1 <1>   0.0800 
 14 H        0.1190    -1.8600    -1.9110 H     1 <1>   0.0800 
 15 H       -0.9850    -1.0820    -0.8310 H     1 <1>   0.0800 
 16 H        0.5930     0.8280    -0.9550 H     1 <1>   0.0800 
 17 H        2.0250     0.1220    -1.6420 H     1 <1>   0.0800 
 18 H        1.4840    -3.3160     1.5290 H     1 <1>   0.0800 
 19 H        2.6300    -4.1350     0.4930 H     1 <1>   0.0800 
 20 H       -1.3100    -3.5340    -0.8910 H     1 <1>   0.0800 
 21 H       -0.8810    -2.9820     0.7100 H     1 <1>   0.0800 
 22 H        1.9350     0.9040     1.1960 H     1 <1>   0.4500 
 23 H        2.2960     2.0670     0.0510 H     1 <1>   0.4500 
 24 H        3.2930     0.7530     0.2650 H     1 <1>   0.4500 
 25 H        0.9810    -4.1560    -1.2630 H     1 <1>   0.4500 
 26 H       -0.0630    -5.2700     1.2680 H     1 <1>   0.0800 
 27 H        1.1190    -6.0300     0.2230 H     1 <1>   0.0800 
 28 H       -0.5180    -5.7860    -0.3430 H     1 <1>   0.0800 
@<TRIPOS>BOND
  1   1   2  1   
  2   1  11  1   
  3   2   3  1   
  4   2   4  1   
  5   2   5  1   
  6   3   6  1   
  7   3  12  1   
  8   3  13  1   
  9   4   7  1   
 10   4  14  1   
 11   4  15  1   
 12   5   8  1   
 13   5  16  1   
 14   5  17  1   
 15   6   9  1   
 16   6  18  1   
 17   6  19  1   
 18   7   9  1   
 19   7  20  1   
 20   7  21  1   
 21   8  22  1   
 22   8  23  1   
 23   8  24  1   
 24   9  10  1   
 25   9  25  1   
 26  10  26  1   
 27  10  27  1   
 28  10  28  1   
@<TRIPOS>SUBSTRUCTURE
  1 ****   2 GROUP 4 **** **** 0

# MOE 2024.06 (io_trps.svl 2023.06)
