@<TRIPOS>MOLECULE
N-{1-[3-(2-Chloro-phenyl)-[1,2,4]oxadiazol-5-yl]-ethyl}-isobutyramide
36 37 1 0 0 
SMALL
USER_CHARGES


@<TRIPOS>ATOM
  1 CL       0.7540    -1.0860     2.3070 Cl    1 <1>  -0.1770 
  2 C        0.7620    -2.2650     1.0160 C.ar  1 <1>   0.1770 
  3 C        1.6720    -2.1650    -0.0370 C.ar  1 <1>   0.0540 
  4 C       -0.1530    -3.2990     1.0980 C.ar  1 <1>  -0.1500 
  5 C        2.6240    -1.0840    -0.1480 C.2   1 <1>   0.4620 
  6 C        1.6360    -3.1710    -1.0040 C.ar  1 <1>  -0.1500 
  7 C       -0.1730    -4.2780     0.1200 C.ar  1 <1>  -0.1500 
  8 N        3.8910    -1.2260    -0.3080 N.2   1 <1>  -0.4100 
  9 N        2.2670     0.2010    -0.1300 N.2   1 <1>  -0.5650 
 10 C        0.7270    -4.2120    -0.9300 C.ar  1 <1>  -0.1500 
 11 O        4.4160    -0.0440    -0.3730 O.3   1 <1>  -0.0190 
 12 C        3.3970     0.7690    -0.2610 C.2   1 <1>   0.2980 
 13 C        3.6850     2.2740    -0.3040 C.3   1 <1>   0.4000 
 14 N        4.3490     2.7110     0.9420 N.am  1 <1>  -0.7300 
 15 C        2.4220     3.1220    -0.4680 C.3   1 <1>  -0.2400 
 16 C        5.5720     3.2560     1.1330 C.2   1 <1>   0.5690 
 17 O        5.9570     3.4150     2.2640 O.2   1 <1>  -0.5700 
 18 C        6.4700     3.6620    -0.0460 C.3   1 <1>  -0.0190 
 19 C        7.2940     2.4670    -0.5530 C.3   1 <1>  -0.2400 
 20 C        7.4170     4.8250     0.3020 C.3   1 <1>  -0.2400 
 21 H       -0.8400    -3.3370     1.9250 H     1 <1>   0.1500 
 22 H        2.3320    -3.1320    -1.8240 H     1 <1>   0.1500 
 23 H       -0.8820    -5.0870     0.1770 H     1 <1>   0.1500 
 24 H        0.7180    -4.9740    -1.6910 H     1 <1>   0.1500 
 25 H        4.3260     2.4550    -1.1470 H     1 <1>   0.0800 
 26 H        3.8500     2.4600     1.7970 H     1 <1>   0.3700 
 27 H        1.7510     2.9610     0.3570 H     1 <1>   0.0800 
 28 H        1.9140     2.8460    -1.3750 H     1 <1>   0.0800 
 29 H        2.6770     4.1650    -0.5220 H     1 <1>   0.0800 
 30 H        5.8400     4.0090    -0.8440 H     1 <1>   0.0800 
 31 H        7.9470     2.1130     0.2270 H     1 <1>   0.0800 
 32 H        7.8930     2.7520    -1.4000 H     1 <1>   0.0800 
 33 H        6.6510     1.6570    -0.8460 H     1 <1>   0.0800 
 34 H        8.1000     4.5330     1.0810 H     1 <1>   0.0800 
 35 H        6.8490     5.6700     0.6520 H     1 <1>   0.0800 
 36 H        7.9850     5.1260    -0.5600 H     1 <1>   0.0800 
@<TRIPOS>BOND
  1   1   2  1   
  2   2   3  ar  
  3   2   4  ar  
  4   3   5  1   
  5   3   6  ar  
  6   4   7  ar  
  7   4  21  1   
  8   5   8  2   
  9   5   9  1   
 10   6  10  ar  
 11   6  22  1   
 12   7  10  ar  
 13   7  23  1   
 14   8  11  1   
 15   9  12  2   
 16  10  24  1   
 17  11  12  1   
 18  12  13  1   
 19  13  14  1   
 20  13  15  1   
 21  13  25  1   
 22  14  16  am  
 23  14  26  1   
 24  15  27  1   
 25  15  28  1   
 26  15  29  1   
 27  16  17  2   
 28  16  18  1   
 29  18  19  1   
 30  18  20  1   
 31  18  30  1   
 32  19  31  1   
 33  19  32  1   
 34  19  33  1   
 35  20  34  1   
 36  20  35  1   
 37  20  36  1   
@<TRIPOS>SUBSTRUCTURE
  1 ****  12 GROUP 4 **** **** 0

# MOE 2024.06 (io_trps.svl 2023.06)
