@<TRIPOS>MOLECULE
1-(2,5-Dimethoxy-benzenesulfonyl)-piperidine-4-carboxylic acid (tetrahydro-furan
56 58 1 0 0 
SMALL
USER_CHARGES


@<TRIPOS>ATOM
  1 S       -0.2460     0.2920    -1.4900 S.o2  1 <1>   1.4470 
  2 O        0.0860    -0.7000    -2.4910 O.2   1 <1>  -0.6500 
  3 O       -1.1010     1.3880    -1.8970 O.2   1 <1>  -0.6500 
  4 N        1.2300     0.9730    -0.9950 N.am  1 <1>  -0.8490 
  5 C       -0.8660    -0.5900    -0.0300 C.ar  1 <1>  -0.0090 
  6 C        1.0370     2.0640    -0.0340 C.3   1 <1>   0.1960 
  7 C        2.0030     1.4220    -2.1580 C.3   1 <1>   0.1960 
  8 C       -1.6700     0.0190     0.9320 C.ar  1 <1>   0.0830 
  9 C       -0.5240    -1.9240     0.1670 C.ar  1 <1>  -0.1500 
 10 C        2.3880     2.5720     0.4760 C.3   1 <1>  -0.1600 
 11 C        3.3890     1.9050    -1.7250 C.3   1 <1>  -0.1600 
 12 O       -2.0090     1.3200     0.8230 O.3   1 <1>  -0.3620 
 13 C       -2.1190    -0.6800     2.0430 C.ar  1 <1>  -0.1500 
 14 C       -0.9740    -2.6370     1.2740 C.ar  1 <1>   0.0830 
 15 C        3.2820     3.0330    -0.6860 C.3   1 <1>  -0.0190 
 16 C       -3.3240     1.5910     0.3890 C.3   1 <1>   0.0400 
 17 C       -1.7730    -2.0060     2.2100 C.ar  1 <1>  -0.1500 
 18 O       -0.6760    -3.9410     1.5060 O.3   1 <1>  -0.3630 
 19 C        4.6490     3.5120    -0.2060 C.2   1 <1>   0.5690 
 20 C        0.1020    -4.6870     0.5950 C.3   1 <1>   0.0400 
 21 O        4.9530     4.6680    -0.3730 O.2   1 <1>  -0.5700 
 22 N        5.4900     2.6330     0.3930 N.am  1 <1>  -0.7300 
 23 C        6.8610     2.9260     0.8690 C.3   1 <1>   0.1400 
 24 C        7.8260     1.8180     0.4190 C.3   1 <1>   0.2000 
 25 O        7.3100     0.5630     0.7430 O.3   1 <1>  -0.5600 
 26 C        9.1860     1.8580     1.1000 C.3   1 <1>  -0.1600 
 27 C        8.3360    -0.3750     0.8530 C.3   1 <1>   0.1200 
 28 C        9.6360     0.4100     1.0170 C.3   1 <1>  -0.1600 
 29 H        0.4730     1.7120     0.8120 H     1 <1>   0.0800 
 30 H        0.4880     2.8710    -0.4930 H     1 <1>   0.0800 
 31 H        1.4740     2.2140    -2.6650 H     1 <1>   0.0800 
 32 H        2.1290     0.6070    -2.8510 H     1 <1>   0.0800 
 33 H        0.1030    -2.3960    -0.5670 H     1 <1>   0.1500 
 34 H        2.8680     1.7810     1.0260 H     1 <1>   0.0800 
 35 H        2.2270     3.3930     1.1520 H     1 <1>   0.0800 
 36 H        3.9270     2.2600    -2.5860 H     1 <1>   0.0800 
 37 H        3.9320     1.0690    -1.3190 H     1 <1>   0.0800 
 38 H       -2.7310    -0.1840     2.7750 H     1 <1>   0.1500 
 39 H        2.8010     3.8720    -1.1590 H     1 <1>   0.0800 
 40 H       -3.4360     2.6570     0.3030 H     1 <1>   0.0800 
 41 H       -4.0220     1.2020     1.1080 H     1 <1>   0.0800 
 42 H       -3.4760     1.1310    -0.5720 H     1 <1>   0.0800 
 43 H       -2.1170    -2.5590     3.0660 H     1 <1>   0.1500 
 44 H        0.1920    -5.6880     0.9750 H     1 <1>   0.0800 
 45 H        1.0760    -4.2370     0.5160 H     1 <1>   0.0800 
 46 H       -0.3950    -4.7020    -0.3590 H     1 <1>   0.0800 
 47 H        5.2430     1.6420     0.4750 H     1 <1>   0.3700 
 48 H        6.8520     2.9810     1.9430 H     1 <1>   0.0800 
 49 H        7.1930     3.8760     0.4860 H     1 <1>   0.0800 
 50 H        7.9490     1.8510    -0.6500 H     1 <1>   0.0800 
 51 H        9.0720     2.1500     2.1290 H     1 <1>   0.0800 
 52 H        9.8630     2.5330     0.6080 H     1 <1>   0.0800 
 53 H        8.3470    -0.9740    -0.0420 H     1 <1>   0.0800 
 54 H        8.1310    -0.9950     1.7090 H     1 <1>   0.0800 
 55 H       10.1750     0.1030     1.8960 H     1 <1>   0.0800 
 56 H       10.2580     0.2530     0.1530 H     1 <1>   0.0800 
@<TRIPOS>BOND
  1   1   2  2   
  2   1   3  2   
  3   1   4  am  
  4   1   5  1   
  5   4   6  1   
  6   4   7  1   
  7   5   8  ar  
  8   5   9  ar  
  9   6  10  1   
 10   6  29  1   
 11   6  30  1   
 12   7  11  1   
 13   7  31  1   
 14   7  32  1   
 15   8  12  1   
 16   8  13  ar  
 17   9  14  ar  
 18   9  33  1   
 19  10  15  1   
 20  10  34  1   
 21  10  35  1   
 22  11  15  1   
 23  11  36  1   
 24  11  37  1   
 25  12  16  1   
 26  13  17  ar  
 27  13  38  1   
 28  14  17  ar  
 29  14  18  1   
 30  15  19  1   
 31  15  39  1   
 32  16  40  1   
 33  16  41  1   
 34  16  42  1   
 35  17  43  1   
 36  18  20  1   
 37  19  21  2   
 38  19  22  am  
 39  20  44  1   
 40  20  45  1   
 41  20  46  1   
 42  22  23  1   
 43  22  47  1   
 44  23  24  1   
 45  23  48  1   
 46  23  49  1   
 47  24  25  1   
 48  24  26  1   
 49  24  50  1   
 50  25  27  1   
 51  26  28  1   
 52  26  51  1   
 53  26  52  1   
 54  27  28  1   
 55  27  53  1   
 56  27  54  1   
 57  28  55  1   
 58  28  56  1   
@<TRIPOS>SUBSTRUCTURE
  1 ****   4 GROUP 4 **** **** 0

# MOE 2024.06 (io_trps.svl 2023.06)
