@<TRIPOS>MOLECULE
1-(4-Methoxy-3-methyl-benzenesulfonyl)-piperidine-4-carboxylic acid diethylamide
53 54 1 0 0 
SMALL
USER_CHARGES


@<TRIPOS>ATOM
  1 S       -0.1440    -0.3420    -2.1620 S.o2  1 <1>   1.4470 
  2 O        0.5500    -1.4910    -2.7050 O.2   1 <1>  -0.6500 
  3 O       -0.7670     0.5950    -3.0710 O.2   1 <1>  -0.6500 
  4 N        0.9990     0.5210    -1.2520 N.am  1 <1>  -0.8490 
  5 C       -1.3580    -0.8740    -0.9230 C.ar  1 <1>  -0.0090 
  6 C        1.8540     1.3450    -2.1090 C.3   1 <1>   0.1960 
  7 C        1.7900    -0.3590    -0.3860 C.3   1 <1>   0.1960 
  8 C       -1.7830    -0.0110     0.0800 C.ar  1 <1>  -0.1500 
  9 C       -1.8990    -2.1530    -0.9500 C.ar  1 <1>  -0.1500 
 10 C        2.7700     2.2270    -1.2560 C.3   1 <1>  -0.1600 
 11 C        2.6870     0.4750     0.5300 C.3   1 <1>  -0.1600 
 12 C       -2.7060    -0.4010     1.0360 C.ar  1 <1>  -0.1430 
 13 C       -2.8240    -2.5610    -0.0060 C.ar  1 <1>  -0.1500 
 14 C        3.6200     1.3870    -0.2870 C.3   1 <1>  -0.0190 
 15 C       -3.2340    -1.6880     0.9970 C.ar  1 <1>   0.0830 
 16 C       -3.1340     0.5810     2.1170 C.3   1 <1>  -0.0970 
 17 C        4.4960     2.2800     0.6030 C.2   1 <1>   0.5690 
 18 O       -4.1360    -2.0310     1.9520 O.3   1 <1>  -0.3630 
 19 O        3.9860     2.7530     1.5930 O.2   1 <1>  -0.5700 
 20 N        5.8130     2.5350     0.2890 N.am  1 <1>  -0.6600 
 21 C       -4.7480    -3.3010     1.9760 C.3   1 <1>   0.0400 
 22 C        6.6550     3.3280     1.2290 C.3   1 <1>   0.1400 
 23 C        6.4490     2.2180    -1.0200 C.3   1 <1>   0.1400 
 24 C        7.1660     2.4330     2.3570 C.3   1 <1>  -0.2400 
 25 C        7.2490     0.9220    -0.9180 C.3   1 <1>  -0.2400 
 26 H        1.2430     1.9840    -2.7250 H     1 <1>   0.0800 
 27 H        2.4380     0.7130    -2.7570 H     1 <1>   0.0800 
 28 H        2.3920    -1.0240    -0.9840 H     1 <1>   0.0800 
 29 H        1.1330    -0.9570     0.2240 H     1 <1>   0.0800 
 30 H       -1.3750     0.9860     0.1060 H     1 <1>   0.1500 
 31 H       -1.5910    -2.8390    -1.7210 H     1 <1>   0.1500 
 32 H        2.1630     2.9170    -0.6960 H     1 <1>   0.0800 
 33 H        3.4090     2.8030    -1.9000 H     1 <1>   0.0800 
 34 H        3.2740    -0.1780     1.1510 H     1 <1>   0.0800 
 35 H        2.0620     1.0670     1.1780 H     1 <1>   0.0800 
 36 H       -3.2120    -3.5600    -0.0680 H     1 <1>   0.1500 
 37 H        4.2540     0.7390    -0.8610 H     1 <1>   0.0800 
 38 H       -2.6130     1.5170     2.0230 H     1 <1>   0.0800 
 39 H       -2.9240     0.1680     3.0880 H     1 <1>   0.0800 
 40 H       -4.1900     0.7650     2.0430 H     1 <1>   0.0800 
 41 H       -5.4260    -3.3290     2.8100 H     1 <1>   0.0800 
 42 H       -3.9890    -4.0530     2.0980 H     1 <1>   0.0800 
 43 H       -5.2920    -3.4440     1.0590 H     1 <1>   0.0800 
 44 H        6.0670     4.1290     1.6470 H     1 <1>   0.0800 
 45 H        7.4870     3.7690     0.7080 H     1 <1>   0.0800 
 46 H        7.0990     3.0250    -1.3130 H     1 <1>   0.0800 
 47 H        5.7000     2.1250    -1.7850 H     1 <1>   0.0800 
 48 H        6.3370     2.0250     2.9070 H     1 <1>   0.0800 
 49 H        7.7650     3.0140     3.0330 H     1 <1>   0.0800 
 50 H        7.7660     1.6320     1.9700 H     1 <1>   0.0800 
 51 H        8.0880     1.0500    -0.2600 H     1 <1>   0.0800 
 52 H        7.6230     0.6520    -1.8890 H     1 <1>   0.0800 
 53 H        6.6300     0.1220    -0.5550 H     1 <1>   0.0800 
@<TRIPOS>BOND
  1   1   2  2   
  2   1   3  2   
  3   1   4  am  
  4   1   5  1   
  5   4   6  1   
  6   4   7  1   
  7   5   8  ar  
  8   5   9  ar  
  9   6  10  1   
 10   6  26  1   
 11   6  27  1   
 12   7  11  1   
 13   7  28  1   
 14   7  29  1   
 15   8  12  ar  
 16   8  30  1   
 17   9  13  ar  
 18   9  31  1   
 19  10  14  1   
 20  10  32  1   
 21  10  33  1   
 22  11  14  1   
 23  11  34  1   
 24  11  35  1   
 25  12  15  ar  
 26  12  16  1   
 27  13  15  ar  
 28  13  36  1   
 29  14  17  1   
 30  14  37  1   
 31  15  18  1   
 32  16  38  1   
 33  16  39  1   
 34  16  40  1   
 35  17  19  2   
 36  17  20  am  
 37  18  21  1   
 38  20  22  1   
 39  20  23  1   
 40  21  41  1   
 41  21  42  1   
 42  21  43  1   
 43  22  24  1   
 44  22  44  1   
 45  22  45  1   
 46  23  25  1   
 47  23  46  1   
 48  23  47  1   
 49  24  48  1   
 50  24  49  1   
 51  24  50  1   
 52  25  51  1   
 53  25  52  1   
 54  25  53  1   
@<TRIPOS>SUBSTRUCTURE
  1 ****   7 GROUP 4 **** **** 0

# MOE 2024.06 (io_trps.svl 2023.06)
