@<TRIPOS>MOLECULE
N-[2-(4-Acetyl-piperazin-1-yl)-phenyl]-2-(2,4-dimethyl-phenoxy)-acetamide
55 57 1 0 0 
SMALL
USER_CHARGES


@<TRIPOS>ATOM
  1 O        0.3450    -0.0750    -0.1040 O.2   1 <1>  -0.5700 
  2 C        0.7500     1.0450     0.1010 C.2   1 <1>   0.5690 
  3 N        2.0450     1.3430     0.3970 N.am  1 <1>  -0.5470 
  4 C       -0.2270     2.2090     0.0170 C.3   1 <1>   0.1810 
  5 C        3.2540     0.6390     0.3380 C.ar  1 <1>   0.1170 
  6 O        0.4460     3.3760    -0.4400 O.3   1 <1>  -0.3630 
  7 C        4.4250     1.4130     0.3360 C.ar  1 <1>   0.1000 
  8 C        3.3370    -0.7450     0.2830 C.ar  1 <1>  -0.1500 
  9 C       -0.2830     4.5010    -0.5930 C.ar  1 <1>   0.0830 
 10 N        4.3330     2.8190     0.3900 N.pl3 1 <1>  -0.8380 
 11 C        5.6540     0.7680     0.2730 C.ar  1 <1>  -0.1500 
 12 C        4.5710    -1.3710     0.2240 C.ar  1 <1>  -0.1500 
 13 C       -0.4080     5.0650    -1.8580 C.ar  1 <1>  -0.1430 
 14 C       -0.8780     5.1010     0.5060 C.ar  1 <1>  -0.1500 
 15 C        4.0660     3.5310    -0.8970 C.3   1 <1>   0.2090 
 16 C        5.2730     3.5750     1.2730 C.3   1 <1>   0.2090 
 17 C        5.7290    -0.6140     0.2190 C.ar  1 <1>  -0.1500 
 18 C       -1.1450     6.2290    -2.0050 C.ar  1 <1>  -0.1500 
 19 C        0.2430     4.4130    -3.0690 C.3   1 <1>  -0.0970 
 20 C       -1.6110     6.2630     0.3450 C.ar  1 <1>  -0.1500 
 21 C        3.5190     4.9480    -0.6370 C.3   1 <1>   0.1400 
 22 C        4.7390     4.9900     1.5510 C.3   1 <1>   0.1400 
 23 C       -1.7470     6.8320    -0.9110 C.ar  1 <1>  -0.1430 
 24 N        4.4210     5.7190     0.2790 N.am  1 <1>  -0.6600 
 25 C       -2.5530     8.1060    -1.0900 C.3   1 <1>  -0.0970 
 26 C        4.9320     6.9640     0.0290 C.2   1 <1>   0.5690 
 27 O        5.7090     7.5000     0.7810 O.2   1 <1>  -0.5700 
 28 C        4.5360     7.7220    -1.2160 C.3   1 <1>  -0.1790 
 29 H        2.2460     2.3420     0.5170 H     1 <1>   0.3700 
 30 H       -0.6440     2.4000     0.9870 H     1 <1>   0.0800 
 31 H       -1.0120     1.9780    -0.6790 H     1 <1>   0.0800 
 32 H        2.4400    -1.3370     0.2870 H     1 <1>   0.1500 
 33 H        6.5580     1.3460     0.2600 H     1 <1>   0.1500 
 34 H        4.6250    -2.4450     0.1820 H     1 <1>   0.1500 
 35 H       -0.7650     4.6730     1.4850 H     1 <1>   0.1500 
 36 H        3.3520     2.9720    -1.4790 H     1 <1>   0.0800 
 37 H        4.9780     3.5970    -1.4640 H     1 <1>   0.0800 
 38 H        6.2360     3.6510     0.7990 H     1 <1>   0.0800 
 39 H        5.3940     3.0470     2.2030 H     1 <1>   0.0800 
 40 H        6.6880    -1.0990     0.1710 H     1 <1>   0.1500 
 41 H       -1.2550     6.6730    -2.9780 H     1 <1>   0.1500 
 42 H        1.3030     4.3300    -2.9160 H     1 <1>   0.0800 
 43 H        0.0680     4.9890    -3.9590 H     1 <1>   0.0800 
 44 H       -0.1630     3.4280    -3.2130 H     1 <1>   0.0800 
 45 H       -2.0740     6.7240     1.2000 H     1 <1>   0.1500 
 46 H        2.5480     4.8710    -0.1820 H     1 <1>   0.0800 
 47 H        3.3990     5.4500    -1.5780 H     1 <1>   0.0800 
 48 H        5.4680     5.5320     2.1270 H     1 <1>   0.0800 
 49 H        3.8440     4.9150     2.1430 H     1 <1>   0.0800 
 50 H       -3.5730     7.8610    -1.3240 H     1 <1>   0.0800 
 51 H       -2.1460     8.7000    -1.8890 H     1 <1>   0.0800 
 52 H       -2.5340     8.6940    -0.1900 H     1 <1>   0.0800 
 53 H        4.9020     7.2100    -2.0850 H     1 <1>   0.0800 
 54 H        4.9630     8.7070    -1.1900 H     1 <1>   0.0800 
 55 H        3.4670     7.8130    -1.2640 H     1 <1>   0.0800 
@<TRIPOS>BOND
  1   1   2  2   
  2   2   3  am  
  3   2   4  1   
  4   3   5  1   
  5   3  29  1   
  6   4   6  1   
  7   4  30  1   
  8   4  31  1   
  9   5   7  ar  
 10   5   8  ar  
 11   6   9  1   
 12   7  10  1   
 13   7  11  ar  
 14   8  12  ar  
 15   8  32  1   
 16   9  13  ar  
 17   9  14  ar  
 18  10  15  1   
 19  10  16  1   
 20  11  17  ar  
 21  11  33  1   
 22  12  17  ar  
 23  12  34  1   
 24  13  18  ar  
 25  13  19  1   
 26  14  20  ar  
 27  14  35  1   
 28  15  21  1   
 29  15  36  1   
 30  15  37  1   
 31  16  22  1   
 32  16  38  1   
 33  16  39  1   
 34  17  40  1   
 35  18  23  ar  
 36  18  41  1   
 37  19  42  1   
 38  19  43  1   
 39  19  44  1   
 40  20  23  ar  
 41  20  45  1   
 42  21  24  1   
 43  21  46  1   
 44  21  47  1   
 45  22  24  1   
 46  22  48  1   
 47  22  49  1   
 48  23  25  1   
 49  24  26  am  
 50  25  50  1   
 51  25  51  1   
 52  25  52  1   
 53  26  27  2   
 54  26  28  1   
 55  28  53  1   
 56  28  54  1   
 57  28  55  1   
@<TRIPOS>SUBSTRUCTURE
  1 ****  21 GROUP 4 **** **** 0

# MOE 2024.06 (io_trps.svl 2023.06)
