@<TRIPOS>MOLECULE
1,6,7-Trimethyl-3-(2-piperidin-1-yl-ethyl)-8-(tetrahydro-furan-2-ylmethyl)-1H,8H
65 69 1 0 0 
SMALL
USER_CHARGES


@<TRIPOS>ATOM
  1 O        1.3000     0.1120    -0.6600 O.2   1 <1>  -0.5730 
  2 C        2.1610     0.9540    -0.5100 C.2   1 <1>   0.6870 
  3 N        1.7960     2.2930    -0.5150 N.am  1 <1>  -0.4240 
  4 N        3.4830     0.5930    -0.2970 N.am  1 <1>  -0.4400 
  5 C        2.6990     3.2850    -0.1550 C.2   1 <1>   0.7000 
  6 C        0.4020     2.6540    -0.9240 C.3   1 <1>   0.1340 
  7 C        4.3890     1.5910     0.0090 C.2   1 <1>   0.4220 
  8 C        3.9110    -0.8370    -0.3410 C.3   1 <1>   0.0540 
  9 O        2.3060     4.4330    -0.0300 O.2   1 <1>  -0.5730 
 10 C        4.0550     2.9040     0.0830 C.2   1 <1>   0.2720 
 11 C       -0.5780     2.3820     0.2300 C.3   1 <1>   0.3380 
 12 N        5.7140     1.4550     0.2800 N.pl3 1 <1>  -0.7030 
 13 N        5.2380     3.5940     0.3990 N.pl3 1 <1>  -0.6320 
 14 N       -2.0030     2.6360    -0.1460 N.4   1 <1>  -0.9600 
 15 C        6.1940     2.6780     0.4960 C.cat 1 <1>   1.0690 
 16 C        5.8390     4.8150     0.6260 C.2   1 <1>   0.2360 
 17 C       -2.2910     4.0850    -0.3750 C.3   1 <1>   0.3380 
 18 C       -2.9070     2.0700     0.8970 C.3   1 <1>   0.3380 
 19 N        7.3860     3.2190     0.7760 N.pl3 1 <1>  -0.5710 
 20 C        7.1550     4.5860     0.8590 C.2   1 <1>   0.1590 
 21 C        5.0240     6.0930     0.5860 C.3   1 <1>  -0.1080 
 22 C       -3.7300     4.2510    -0.8660 C.3   1 <1>  -0.1660 
 23 C       -4.3600     2.1880     0.4360 C.3   1 <1>  -0.1660 
 24 C        8.6640     2.4850     1.0430 C.3   1 <1>   0.1620 
 25 C        8.2710     5.5700     1.1690 C.3   1 <1>  -0.1080 
 26 C       -4.7380     3.6390     0.1160 C.3   1 <1>  -0.1660 
 27 C        9.0980     1.5560    -0.1080 C.3   1 <1>   0.1950 
 28 O        8.1610     0.5440    -0.3210 O.3   1 <1>  -0.5630 
 29 C       10.3930     0.8070     0.1760 C.3   1 <1>  -0.1660 
 30 C        8.7640    -0.5160    -1.0010 C.3   1 <1>   0.1140 
 31 C       10.2480    -0.4600    -0.6500 C.3   1 <1>  -0.1660 
 32 H        0.1260     2.0570    -1.7760 H     1 <1>   0.0740 
 33 H        0.3580     3.6890    -1.2140 H     1 <1>   0.0740 
 34 H        3.1820    -1.4380    -0.8600 H     1 <1>   0.0740 
 35 H        4.0170    -1.2170     0.6610 H     1 <1>   0.0740 
 36 H        4.8500    -0.9300    -0.8580 H     1 <1>   0.0740 
 37 H       -0.3160     3.0000     1.0730 H     1 <1>   0.0740 
 38 H       -0.4760     1.3480     0.5190 H     1 <1>   0.0740 
 39 H        6.3710     0.6750     0.1350 H     1 <1>   0.4460 
 40 H       -2.2230     2.1330    -1.0160 H     1 <1>   0.4460 
 41 H       -1.6180     4.4900    -1.1130 H     1 <1>   0.0740 
 42 H       -2.1600     4.6330     0.5440 H     1 <1>   0.0740 
 43 H       -2.7780     2.6080     1.8220 H     1 <1>   0.0740 
 44 H       -2.6690     1.0320     1.0680 H     1 <1>   0.0740 
 45 H        4.2450     6.0560     1.3270 H     1 <1>   0.0740 
 46 H        4.5720     6.2110    -0.3820 H     1 <1>   0.0740 
 47 H        5.6400     6.9510     0.7820 H     1 <1>   0.0740 
 48 H       -3.8350     3.7910    -1.8330 H     1 <1>   0.0740 
 49 H       -3.9430     5.2990    -0.9840 H     1 <1>   0.0740 
 50 H       -5.0050     1.8170     1.2140 H     1 <1>   0.0740 
 51 H       -4.5130     1.5680    -0.4300 H     1 <1>   0.0740 
 52 H        8.5560     1.9030     1.9430 H     1 <1>   0.0740 
 53 H        9.4540     3.1940     1.2150 H     1 <1>   0.0740 
 54 H        8.6990     5.3550     2.1320 H     1 <1>   0.0740 
 55 H        7.9020     6.5790     1.1830 H     1 <1>   0.0740 
 56 H        9.0410     5.5040     0.4210 H     1 <1>   0.0740 
 57 H       -5.7290     3.6760    -0.3050 H     1 <1>   0.0740 
 58 H       -4.7470     4.2160     1.0260 H     1 <1>   0.0740 
 59 H        9.1980     2.1140    -1.0250 H     1 <1>   0.0740 
 60 H       10.4600     0.5560     1.2210 H     1 <1>   0.0740 
 61 H       11.2590     1.3810    -0.1050 H     1 <1>   0.0740 
 62 H        8.6120    -0.3740    -2.0580 H     1 <1>   0.0740 
 63 H        8.3100    -1.4390    -0.6830 H     1 <1>   0.0740 
 64 H       10.5500    -1.3300    -0.0930 H     1 <1>   0.0740 
 65 H       10.8330    -0.4070    -1.5520 H     1 <1>   0.0740 
@<TRIPOS>BOND
  1   1   2  2   
  2   2   3  am  
  3   2   4  am  
  4   3   5  am  
  5   3   6  1   
  6   4   7  1   
  7   4   8  1   
  8   5   9  2   
  9   5  10  1   
 10   6  11  1   
 11   6  32  1   
 12   6  33  1   
 13   7  10  2   
 14   7  12  1   
 15   8  34  1   
 16   8  35  1   
 17   8  36  1   
 18  10  13  1   
 19  11  14  1   
 20  11  37  1   
 21  11  38  1   
 22  12  15  ar  
 23  12  39  1   
 24  13  15  ar  
 25  13  16  1   
 26  14  17  1   
 27  14  18  1   
 28  14  40  1   
 29  15  19  ar  
 30  16  20  2   
 31  16  21  1   
 32  17  22  1   
 33  17  41  1   
 34  17  42  1   
 35  18  23  1   
 36  18  43  1   
 37  18  44  1   
 38  19  20  1   
 39  19  24  1   
 40  20  25  1   
 41  21  45  1   
 42  21  46  1   
 43  21  47  1   
 44  22  26  1   
 45  22  48  1   
 46  22  49  1   
 47  23  26  1   
 48  23  50  1   
 49  23  51  1   
 50  24  27  1   
 51  24  52  1   
 52  24  53  1   
 53  25  54  1   
 54  25  55  1   
 55  25  56  1   
 56  26  57  1   
 57  26  58  1   
 58  27  28  1   
 59  27  29  1   
 60  27  59  1   
 61  28  30  1   
 62  29  31  1   
 63  29  60  1   
 64  29  61  1   
 65  30  31  1   
 66  30  62  1   
 67  30  63  1   
 68  31  64  1   
 69  31  65  1   
@<TRIPOS>SUBSTRUCTURE
  1 ****  10 GROUP 4 **** **** 0

# MOE 2024.06 (io_trps.svl 2023.06)
