@<TRIPOS>MOLECULE
4-(2-Chloro-phenyl)-6-morpholin-4-ylmethyl-2-oxo-1,2,3,4-tetrahydro-pyrimidine-5
45 47 1 0 0 
SMALL
USER_CHARGES


@<TRIPOS>ATOM
  1 CL      -2.2580     0.7950     2.5110 Cl    1 <1>  -0.1770 
  2 C       -2.4750     0.8910     0.7790 C.ar  1 <1>   0.1770 
  3 C       -2.6800    -0.2530     0.0180 C.ar  1 <1>  -0.1440 
  4 C       -2.4280     2.1460     0.2000 C.ar  1 <1>  -0.1500 
  5 C       -2.8300    -0.1080    -1.3560 C.ar  1 <1>  -0.1500 
  6 C       -2.7450    -1.6410     0.6520 C.3   1 <1>   0.5020 
  7 C       -2.5840     2.2740    -1.1690 C.ar  1 <1>  -0.1500 
  8 C       -2.7840     1.1450    -1.9440 C.ar  1 <1>  -0.1500 
  9 N       -1.5400    -2.3730     0.2140 N.am  1 <1>  -0.7300 
 10 C       -4.0460    -2.3640     0.2740 C.2   1 <1>  -0.1240 
 11 C       -1.5620    -3.4460    -0.5920 C.2   1 <1>   0.6900 
 12 C       -3.9860    -3.4830    -0.4990 C.2   1 <1>  -0.0290 
 13 C       -5.2230    -1.7350     0.7910 C.2   1 <1>   0.7060 
 14 O       -0.5340    -3.9390    -0.9960 O.2   1 <1>  -0.5700 
 15 N       -2.7650    -3.9580    -0.9380 N.am  1 <1>  -0.5390 
 16 C       -5.1860    -4.3210    -0.9610 C.3   1 <1>   0.2480 
 17 O       -6.3430    -1.9530     0.3700 O.2   1 <1>  -0.5700 
 18 O       -5.0890    -0.8610     1.7960 O.3   1 <1>  -0.4300 
 19 N       -4.8340    -5.7540    -1.0690 N.3   1 <1>  -0.8100 
 20 C       -6.1930    -0.1650     2.3400 C.3   1 <1>   0.0400 
 21 C       -5.8850    -6.4990    -1.7890 C.3   1 <1>   0.1100 
 22 C       -4.6350    -6.3630     0.2650 C.3   1 <1>   0.1100 
 23 C       -5.5550    -8.0020    -1.8480 C.3   1 <1>   0.1200 
 24 C       -4.3410    -7.8690     0.1460 C.3   1 <1>   0.1200 
 25 O       -5.3640    -8.5130    -0.5600 O.3   1 <1>  -0.5600 
 26 H       -2.2690     3.0130     0.8160 H     1 <1>   0.1500 
 27 H       -2.9800    -0.9750    -1.9790 H     1 <1>   0.1500 
 28 H       -2.6990    -1.5760     1.7250 H     1 <1>   0.0800 
 29 H       -2.5490     3.2470    -1.6290 H     1 <1>   0.1500 
 30 H       -2.9020     1.2410    -3.0110 H     1 <1>   0.1500 
 31 H       -0.6410    -1.9190     0.3560 H     1 <1>   0.3700 
 32 H       -2.7540    -4.8440    -1.4530 H     1 <1>   0.3700 
 33 H       -5.4850    -3.9600    -1.9300 H     1 <1>   0.0800 
 34 H       -6.0220    -4.2130    -0.2940 H     1 <1>   0.0800 
 35 H       -5.8360     0.4810     3.1220 H     1 <1>   0.0800 
 36 H       -6.8950    -0.8780     2.7380 H     1 <1>   0.0800 
 37 H       -6.6550     0.4170     1.5610 H     1 <1>   0.0800 
 38 H       -5.9700    -6.1200    -2.7920 H     1 <1>   0.0800 
 39 H       -6.8340    -6.3710    -1.2970 H     1 <1>   0.0800 
 40 H       -5.5150    -6.2270     0.8700 H     1 <1>   0.0800 
 41 H       -3.8080    -5.8870     0.7640 H     1 <1>   0.0800 
 42 H       -4.6590    -8.1690    -2.4210 H     1 <1>   0.0800 
 43 H       -6.3650    -8.5450    -2.3000 H     1 <1>   0.0800 
 44 H       -4.2840    -8.3170     1.1220 H     1 <1>   0.0800 
 45 H       -3.4100    -8.0330    -0.3680 H     1 <1>   0.0800 
@<TRIPOS>BOND
  1   1   2  1   
  2   2   3  ar  
  3   2   4  ar  
  4   3   5  ar  
  5   3   6  1   
  6   4   7  ar  
  7   4  26  1   
  8   5   8  ar  
  9   5  27  1   
 10   6   9  1   
 11   6  10  1   
 12   6  28  1   
 13   7   8  ar  
 14   7  29  1   
 15   8  30  1   
 16   9  11  am  
 17   9  31  1   
 18  10  12  2   
 19  10  13  1   
 20  11  14  2   
 21  11  15  am  
 22  12  15  1   
 23  12  16  1   
 24  13  17  2   
 25  13  18  1   
 26  15  32  1   
 27  16  19  1   
 28  16  33  1   
 29  16  34  1   
 30  18  20  1   
 31  19  21  1   
 32  19  22  1   
 33  20  35  1   
 34  20  36  1   
 35  20  37  1   
 36  21  23  1   
 37  21  38  1   
 38  21  39  1   
 39  22  24  1   
 40  22  40  1   
 41  22  41  1   
 42  23  25  1   
 43  23  42  1   
 44  23  43  1   
 45  24  25  1   
 46  24  44  1   
 47  24  45  1   
@<TRIPOS>SUBSTRUCTURE
  1 ****  10 GROUP 4 **** **** 0

# MOE 2024.06 (io_trps.svl 2023.06)
