@<TRIPOS>MOLECULE
7-[2-(4-Methoxy-phenyl)-ethyl]-3-methyl-8-pyrrolidin-1-yl-3,7-dihydro-purine-2,6
51 54 1 0 0 
SMALL
USER_CHARGES


@<TRIPOS>ATOM
  1 O        0.8740     0.4730    -0.8880 O.2   1 <1>  -0.5740 
  2 C        1.9210     1.0270    -0.6470 C.2   1 <1>   0.6860 
  3 N        3.1220     0.3370    -0.5580 N.am  1 <1>  -0.4410 
  4 N        1.9130     2.3780    -0.4600 N.am  1 <1>  -0.4950 
  5 C        4.2660     1.0730    -0.2860 C.2   1 <1>   0.4210 
  6 C        3.1770    -1.1420    -0.7530 C.3   1 <1>   0.0520 
  7 C        3.0300     3.1150    -0.1910 C.2   1 <1>   0.6990 
  8 N        5.5390     0.6140    -0.1710 N.pl3 1 <1>  -0.7040 
  9 C        4.2770     2.4100    -0.0940 C.2   1 <1>   0.2710 
 10 O        2.9210     4.3170    -0.0550 O.2   1 <1>  -0.5740 
 11 C        6.3500     1.6430     0.0920 C.cat 1 <1>   1.0690 
 12 N        5.6170     2.7690     0.1580 N.pl3 1 <1>  -0.7670 
 13 N        7.6850     1.4780     0.2400 N.pl3 1 <1>  -0.5960 
 14 C        6.0040     4.1870     0.4040 C.3   1 <1>   0.3480 
 15 C        8.6800     2.5210     0.6060 C.3   1 <1>   0.1610 
 16 C        8.3900     0.1920    -0.0100 C.3   1 <1>   0.1610 
 17 C        6.3070     4.8980    -0.9160 C.3   1 <1>  -0.0250 
 18 C       10.0280     1.8120     0.6660 C.3   1 <1>  -0.1670 
 19 C        9.8520     0.5680    -0.1920 C.3   1 <1>  -0.1670 
 20 C        6.9980     6.2150    -0.6210 C.ar  1 <1>  -0.1510 
 21 C        6.2640     7.2840    -0.1330 C.ar  1 <1>  -0.1570 
 22 C        8.3630     6.3580    -0.8200 C.ar  1 <1>  -0.1570 
 23 C        6.8920     8.4790     0.1660 C.ar  1 <1>  -0.1570 
 24 C        8.9930     7.5540    -0.5220 C.ar  1 <1>  -0.1570 
 25 C        8.2560     8.6240    -0.0220 C.ar  1 <1>   0.0750 
 26 O        8.7940     9.8260     0.3000 O.3   1 <1>  -0.3680 
 27 C       10.1660    10.0890     0.1110 C.3   1 <1>   0.0320 
 28 H        1.0160     2.8550    -0.5350 H     1 <1>   0.3640 
 29 H        2.1870    -1.5540    -0.8530 H     1 <1>   0.0720 
 30 H        3.6500    -1.6070     0.0940 H     1 <1>   0.0720 
 31 H        3.7310    -1.3720    -1.6460 H     1 <1>   0.0720 
 32 H        5.8450    -0.3490    -0.2570 H     1 <1>   0.4450 
 33 H        6.8580     4.2410     1.0510 H     1 <1>   0.0720 
 34 H        5.2080     4.7050     0.9110 H     1 <1>   0.0720 
 35 H        8.4530     2.9580     1.5640 H     1 <1>   0.0720 
 36 H        8.7060     3.2830    -0.1540 H     1 <1>   0.0720 
 37 H        8.0160    -0.3070    -0.8880 H     1 <1>   0.0720 
 38 H        8.2830    -0.4470     0.8510 H     1 <1>   0.0720 
 39 H        5.3930     5.0860    -1.4500 H     1 <1>   0.0720 
 40 H        6.9440     4.2900    -1.5330 H     1 <1>   0.0720 
 41 H       10.2350     1.5290     1.6840 H     1 <1>   0.0720 
 42 H       10.8280     2.4410     0.3140 H     1 <1>   0.0720 
 43 H       10.0360     0.8050    -1.2260 H     1 <1>   0.0720 
 44 H       10.5130    -0.2290     0.1040 H     1 <1>   0.0720 
 45 H        5.2010     7.2010     0.0180 H     1 <1>   0.1430 
 46 H        8.9520     5.5480    -1.2120 H     1 <1>   0.1430 
 47 H        6.3280     9.3120     0.5460 H     1 <1>   0.1430 
 48 H       10.0500     7.6380    -0.6860 H     1 <1>   0.1430 
 49 H       10.3580    11.1010     0.4190 H     1 <1>   0.0720 
 50 H       10.4030     9.9720    -0.9310 H     1 <1>   0.0720 
 51 H       10.7380     9.4070     0.7160 H     1 <1>   0.0720 
@<TRIPOS>BOND
  1   1   2  2   
  2   2   3  am  
  3   2   4  am  
  4   3   5  1   
  5   3   6  1   
  6   4   7  am  
  7   4  28  1   
  8   5   8  1   
  9   5   9  2   
 10   6  29  1   
 11   6  30  1   
 12   6  31  1   
 13   7   9  1   
 14   7  10  2   
 15   8  11  ar  
 16   8  32  1   
 17   9  12  1   
 18  11  12  ar  
 19  11  13  ar  
 20  12  14  1   
 21  13  15  1   
 22  13  16  1   
 23  14  17  1   
 24  14  33  1   
 25  14  34  1   
 26  15  18  1   
 27  15  35  1   
 28  15  36  1   
 29  16  19  1   
 30  16  37  1   
 31  16  38  1   
 32  17  20  1   
 33  17  39  1   
 34  17  40  1   
 35  18  19  1   
 36  18  41  1   
 37  18  42  1   
 38  19  43  1   
 39  19  44  1   
 40  20  21  ar  
 41  20  22  ar  
 42  21  23  ar  
 43  21  45  1   
 44  22  24  ar  
 45  22  46  1   
 46  23  25  ar  
 47  23  47  1   
 48  24  25  ar  
 49  24  48  1   
 50  25  26  1   
 51  26  27  1   
 52  27  49  1   
 53  27  50  1   
 54  27  51  1   
@<TRIPOS>SUBSTRUCTURE
  1 ****  14 GROUP 4 **** **** 0

# MOE 2024.06 (io_trps.svl 2023.06)
