@<TRIPOS>MOLECULE
8-(3-Imidazol-1-yl-propyl)-1,3,7-trimethyl-1H,8H-imidazo[2,1-f]purine-2,4-dione
45 48 1 0 0 
SMALL
USER_CHARGES


@<TRIPOS>ATOM
  1 O        1.0530    -0.3300     0.3580 O.2   1 <1>  -0.5750 
  2 C        1.9980     0.4300     0.3130 C.2   1 <1>   0.6860 
  3 N        1.7840     1.8020     0.2070 N.am  1 <1>  -0.4260 
  4 N        3.2930    -0.0740     0.3590 N.am  1 <1>  -0.4420 
  5 C        2.8460     2.6890     0.0830 C.2   1 <1>   0.6990 
  6 C        0.3800     2.3190     0.1850 C.3   1 <1>   0.0510 
  7 C        4.3420     0.8150     0.2370 C.2   1 <1>   0.4200 
  8 C        3.5340    -1.5420     0.5010 C.3   1 <1>   0.0510 
  9 O        2.6580     3.8870    -0.0440 O.2   1 <1>  -0.5750 
 10 C        4.1660     2.1510     0.1040 C.2   1 <1>   0.2700 
 11 N        5.6790     0.5330     0.2220 N.pl3 1 <1>  -0.7040 
 12 N        5.4510     2.7070     0.0080 N.pl3 1 <1>  -0.6340 
 13 C        6.3180     1.7050     0.0820 C.cat 1 <1>   1.0690 
 14 C        6.1790     3.8690    -0.1360 C.2   1 <1>   0.2210 
 15 N        7.5890     2.1450    -0.0050 N.pl3 1 <1>  -0.5720 
 16 C        7.4870     3.5250    -0.1430 C.2   1 <1>   0.1570 
 17 C        8.8850     1.4040     0.0310 C.3   1 <1>   0.1600 
 18 C        8.7020     4.4260    -0.2740 C.3   1 <1>  -0.1100 
 19 C        8.6890    -0.1080     0.1400 C.3   1 <1>  -0.1680 
 20 C       10.0140    -0.8800     0.1600 C.3   1 <1>   0.0870 
 21 N        9.7010    -2.3170     0.2410 N.pl3 1 <1>   0.0390 
 22 C        9.4490    -3.0450     1.3520 C.2   1 <1>   0.0270 
 23 C        9.4480    -3.1540    -0.7800 C.2   1 <1>  -0.3090 
 24 N        9.0560    -4.2520     1.1100 N.2   1 <1>  -0.5700 
 25 C        9.0640    -4.3270    -0.2330 C.2   1 <1>   0.0680 
 26 H       -0.2400     1.7410     0.8490 H     1 <1>   0.0710 
 27 H       -0.0160     2.2430    -0.8130 H     1 <1>   0.0710 
 28 H        0.3410     3.3470     0.5010 H     1 <1>   0.0710 
 29 H        2.6960    -2.0160     0.9840 H     1 <1>   0.0710 
 30 H        4.4090    -1.7260     1.0990 H     1 <1>   0.0710 
 31 H        3.6640    -1.9840    -0.4710 H     1 <1>   0.0710 
 32 H        6.1230    -0.3800     0.2890 H     1 <1>   0.4440 
 33 H        5.7130     4.8390    -0.2210 H     1 <1>   0.1420 
 34 H        9.4620     1.7530     0.8720 H     1 <1>   0.0710 
 35 H        9.4370     1.6270    -0.8680 H     1 <1>   0.0710 
 36 H        9.3300     4.3350     0.5940 H     1 <1>   0.0710 
 37 H        8.3970     5.4540    -0.3660 H     1 <1>   0.0710 
 38 H        9.2700     4.1620    -1.1480 H     1 <1>   0.0710 
 39 H        8.1220    -0.4520    -0.7080 H     1 <1>   0.0710 
 40 H        8.1670    -0.3320     1.0550 H     1 <1>   0.0710 
 41 H       10.6110    -0.6030     1.0110 H     1 <1>   0.0710 
 42 H       10.5800    -0.6990    -0.7380 H     1 <1>   0.0710 
 43 H        9.5610    -2.6390     2.3420 H     1 <1>   0.1420 
 44 H        9.5540    -2.8850    -1.8160 H     1 <1>   0.1420 
 45 H        8.7880    -5.2360    -0.7420 H     1 <1>   0.1420 
@<TRIPOS>BOND
  1   1   2  2   
  2   2   3  am  
  3   2   4  am  
  4   3   5  am  
  5   3   6  1   
  6   4   7  1   
  7   4   8  1   
  8   5   9  2   
  9   5  10  1   
 10   6  26  1   
 11   6  27  1   
 12   6  28  1   
 13   7  10  2   
 14   7  11  1   
 15   8  29  1   
 16   8  30  1   
 17   8  31  1   
 18  10  12  1   
 19  11  13  ar  
 20  11  32  1   
 21  12  13  ar  
 22  12  14  1   
 23  13  15  ar  
 24  14  16  2   
 25  14  33  1   
 26  15  16  1   
 27  15  17  1   
 28  16  18  1   
 29  17  19  1   
 30  17  34  1   
 31  17  35  1   
 32  18  36  1   
 33  18  37  1   
 34  18  38  1   
 35  19  20  1   
 36  19  39  1   
 37  19  40  1   
 38  20  21  1   
 39  20  41  1   
 40  20  42  1   
 41  21  22  1   
 42  21  23  1   
 43  22  24  2   
 44  22  43  1   
 45  23  25  2   
 46  23  44  1   
 47  24  25  1   
 48  25  45  1   
@<TRIPOS>SUBSTRUCTURE
  1 ****  11 GROUP 4 **** **** 0

# MOE 2024.06 (io_trps.svl 2023.06)
