@<TRIPOS>MOLECULE
3-Cyclohexyl-5-hydroxy-5-trifluoromethyl-4,5-dihydro-pyrazole-1-carboxylic acid
40 41 1 0 0 
SMALL
USER_CHARGES


@<TRIPOS>ATOM
  1 F        1.2720    -1.2470     0.0030 F     1 <1>  -0.3400 
  2 C        0.2900    -2.1280    -0.1820 C.3   1 <1>   1.0200 
  3 F       -0.1680    -1.8920    -1.4100 F     1 <1>  -0.3400 
  4 F        0.8840    -3.3150    -0.2400 F     1 <1>  -0.3400 
  5 C       -0.8450    -2.0080     0.9210 C.3   1 <1>   0.5800 
  6 O       -0.4380    -2.3820     2.2080 O.3   1 <1>  -0.6800 
  7 N       -2.0780    -2.7950     0.6170 N.am  1 <1>  -0.2980 
  8 C       -1.3850    -0.5700     1.0270 C.3   1 <1>  -0.0990 
  9 N       -3.1820    -1.9590     0.5280 N.2   1 <1>  -0.5120 
 10 C       -2.0380    -4.1880     0.6030 C.2   1 <1>   0.7800 
 11 C       -2.8530    -0.7650     0.7520 C.2   1 <1>   0.3280 
 12 O       -1.1110    -4.7850     1.1120 O.2   1 <1>  -0.5700 
 13 O       -2.9900    -4.9350     0.0330 O.3   1 <1>  -0.4300 
 14 C       -3.7760     0.4550     0.7670 C.3   1 <1>  -0.0190 
 15 C       -4.0650    -4.4420    -0.7300 C.3   1 <1>   0.1200 
 16 C       -5.2620     0.0550     0.8730 C.3   1 <1>  -0.1600 
 17 C       -3.5500     1.3370    -0.4760 C.3   1 <1>  -0.1600 
 18 C       -4.7420    -5.6280    -1.4080 C.3   1 <1>  -0.2400 
 19 C       -6.1810     1.2830     0.8820 C.3   1 <1>  -0.1600 
 20 C       -4.4730     2.5640    -0.4760 C.3   1 <1>  -0.1600 
 21 C       -5.9460     2.1550    -0.3570 C.3   1 <1>  -0.1600 
 22 H       -0.3900    -3.3680     2.2240 H     1 <1>   0.4000 
 23 H       -0.9560     0.0760     0.2850 H     1 <1>   0.0800 
 24 H       -1.2260    -0.1500     2.0040 H     1 <1>   0.0800 
 25 H       -3.5340     1.0320     1.6420 H     1 <1>   0.0800 
 26 H       -3.6840    -3.7500    -1.4610 H     1 <1>   0.0800 
 27 H       -4.7510    -3.9400    -0.0680 H     1 <1>   0.0800 
 28 H       -5.4180    -0.5150     1.7730 H     1 <1>   0.0800 
 29 H       -5.5250    -0.5740     0.0390 H     1 <1>   0.0800 
 30 H       -3.7390     0.7550    -1.3630 H     1 <1>   0.0800 
 31 H       -2.5300     1.6740    -0.5140 H     1 <1>   0.0800 
 32 H       -4.0460    -6.1310    -2.0540 H     1 <1>   0.0800 
 33 H       -5.5720    -5.2840    -1.9980 H     1 <1>   0.0800 
 34 H       -5.1080    -6.3170    -0.6680 H     1 <1>   0.0800 
 35 H       -5.9950     1.8640     1.7690 H     1 <1>   0.0800 
 36 H       -7.2090     0.9640     0.9070 H     1 <1>   0.0800 
 37 H       -4.3290     3.1240    -1.3840 H     1 <1>   0.0800 
 38 H       -4.2160     3.2060     0.3500 H     1 <1>   0.0800 
 39 H       -6.5630     3.0360    -0.3000 H     1 <1>   0.0800 
 40 H       -6.2360     1.6070    -1.2380 H     1 <1>   0.0800 
@<TRIPOS>BOND
  1   1   2  1   
  2   2   3  1   
  3   2   4  1   
  4   2   5  1   
  5   5   6  1   
  6   5   7  1   
  7   5   8  1   
  8   6  22  1   
  9   7   9  1   
 10   7  10  am  
 11   8  11  1   
 12   8  23  1   
 13   8  24  1   
 14   9  11  2   
 15  10  12  2   
 16  10  13  1   
 17  11  14  1   
 18  13  15  1   
 19  14  16  1   
 20  14  17  1   
 21  14  25  1   
 22  15  18  1   
 23  15  26  1   
 24  15  27  1   
 25  16  19  1   
 26  16  28  1   
 27  16  29  1   
 28  17  20  1   
 29  17  30  1   
 30  17  31  1   
 31  18  32  1   
 32  18  33  1   
 33  18  34  1   
 34  19  21  1   
 35  19  35  1   
 36  19  36  1   
 37  20  21  1   
 38  20  37  1   
 39  20  38  1   
 40  21  39  1   
 41  21  40  1   
@<TRIPOS>SUBSTRUCTURE
  1 ****   9 GROUP 4 **** **** 0

# MOE 2024.06 (io_trps.svl 2023.06)
