@<TRIPOS>MOLECULE
4-[2-(4-Methyl-piperazin-1-yl)-ethoxy]-benzaldehyde
39 40 1 0 0 
SMALL
USER_CHARGES


@<TRIPOS>ATOM
  1 O       -0.2780    -0.4880     0.3330 O.2   1 <1>  -0.5700 
  2 C        0.7390     0.0680     0.6630 C.2   1 <1>   0.4240 
  3 C        2.0720    -0.4220     0.4240 C.ar  1 <1>   0.0860 
  4 C        2.2980    -1.6310    -0.2360 C.ar  1 <1>  -0.1500 
  5 C        3.1910     0.2990     0.8470 C.ar  1 <1>  -0.1500 
  6 C        3.5780    -2.0980    -0.4630 C.ar  1 <1>  -0.1500 
  7 C        4.4760    -0.1620     0.6230 C.ar  1 <1>  -0.1500 
  8 C        4.6780    -1.3710    -0.0380 C.ar  1 <1>   0.0830 
  9 O        5.8950    -1.8940    -0.2970 O.3   1 <1>  -0.3630 
 10 C        7.0870    -1.2350     0.0680 C.3   1 <1>   0.1200 
 11 C        8.2620    -2.1210    -0.3520 C.3   1 <1>   0.1100 
 12 N        9.5650    -1.5100    -0.0080 N.3   1 <1>  -0.8100 
 13 C       10.6330    -2.5390     0.0010 C.3   1 <1>   0.1100 
 14 C        9.9300    -0.4060    -0.9350 C.3   1 <1>   0.1100 
 15 C       12.0240    -1.9560     0.3590 C.3   1 <1>   0.3430 
 16 C       11.3310     0.1880    -0.6380 C.3   1 <1>   0.3430 
 17 N       11.9580    -0.4700     0.5550 N.4   1 <1>  -0.9590 
 18 C       13.2620     0.1330     0.9520 C.3   1 <1>   0.2630 
 19 H        0.6510     1.0070     1.1780 H     1 <1>   0.0600 
 20 H        1.4530    -2.2070    -0.5720 H     1 <1>   0.1500 
 21 H        3.0520     1.2350     1.3590 H     1 <1>   0.1500 
 22 H        3.7330    -3.0320    -0.9730 H     1 <1>   0.1500 
 23 H        5.3040     0.4270     0.9680 H     1 <1>   0.1500 
 24 H        7.0860    -1.0990     1.1350 H     1 <1>   0.0800 
 25 H        7.1110    -0.2890    -0.4410 H     1 <1>   0.0800 
 26 H        8.2110    -2.3160    -1.4100 H     1 <1>   0.0800 
 27 H        8.1590    -3.0580     0.1710 H     1 <1>   0.0800 
 28 H       10.6900    -3.0150    -0.9640 H     1 <1>   0.0800 
 29 H       10.3870    -3.3030     0.7200 H     1 <1>   0.0800 
 30 H        9.2040     0.3850    -0.8570 H     1 <1>   0.0800 
 31 H        9.9100    -0.7600    -1.9520 H     1 <1>   0.0800 
 32 H       12.7190    -2.1950    -0.4290 H     1 <1>   0.0800 
 33 H       12.3760    -2.4290     1.2610 H     1 <1>   0.0800 
 34 H       11.2300     1.2470    -0.4630 H     1 <1>   0.0800 
 35 H       11.9590     0.0570    -1.5030 H     1 <1>   0.0800 
 36 H       11.2540    -0.3530     1.3030 H     1 <1>   0.4500 
 37 H       13.9900     0.0040     0.1680 H     1 <1>   0.0800 
 38 H       13.6340    -0.3370     1.8490 H     1 <1>   0.0800 
 39 H       13.1430     1.1880     1.1440 H     1 <1>   0.0800 
@<TRIPOS>BOND
  1   1   2  2   
  2   2   3  1   
  3   2  19  1   
  4   3   4  ar  
  5   3   5  ar  
  6   4   6  ar  
  7   4  20  1   
  8   5   7  ar  
  9   5  21  1   
 10   6   8  ar  
 11   6  22  1   
 12   7   8  ar  
 13   7  23  1   
 14   8   9  1   
 15   9  10  1   
 16  10  11  1   
 17  10  24  1   
 18  10  25  1   
 19  11  12  1   
 20  11  26  1   
 21  11  27  1   
 22  12  13  1   
 23  12  14  1   
 24  13  15  1   
 25  13  28  1   
 26  13  29  1   
 27  14  16  1   
 28  14  30  1   
 29  14  31  1   
 30  15  17  1   
 31  15  32  1   
 32  15  33  1   
 33  16  17  1   
 34  16  34  1   
 35  16  35  1   
 36  17  18  1   
 37  17  36  1   
 38  18  37  1   
 39  18  38  1   
 40  18  39  1   
@<TRIPOS>SUBSTRUCTURE
  1 ****  10 GROUP 4 **** **** 0

# MOE 2024.06 (io_trps.svl 2023.06)
