@<TRIPOS>MOLECULE
(3,4-Dihydro-1H-isoquinolin-2-yl)-[1-(2,5-dimethoxy-benzenesulfonyl)-piperidin-4
59 62 1 0 0 
SMALL
USER_CHARGES


@<TRIPOS>ATOM
  1 S       -0.3120    -0.1250    -1.4520 S.o2  1 <1>   1.4470 
  2 O        0.2930    -1.2510    -2.1350 O.2   1 <1>  -0.6500 
  3 O       -1.0530     0.8320    -2.2460 O.2   1 <1>  -0.6500 
  4 N        0.9720     0.6960    -0.7060 N.am  1 <1>  -0.8490 
  5 C       -1.3580    -0.7460    -0.1100 C.ar  1 <1>  -0.0090 
  6 C        1.7180     1.5070    -1.6690 C.3   1 <1>   0.1960 
  7 C        1.8440    -0.2020     0.0490 C.3   1 <1>   0.1960 
  8 C       -1.8460     0.0930     0.8880 C.ar  1 <1>   0.0830 
  9 C       -1.7120    -2.0910    -0.0590 C.ar  1 <1>  -0.1500 
 10 C        2.7630     2.3580    -0.9450 C.3   1 <1>  -0.1600 
 11 C        2.8860     0.6040     0.8280 C.3   1 <1>  -0.1600 
 12 O       -1.5320     1.4040     0.8960 O.3   1 <1>  -0.3620 
 13 C       -2.6430    -0.3950     1.9130 C.ar  1 <1>  -0.1500 
 14 C       -2.5180    -2.5900     0.9600 C.ar  1 <1>   0.0830 
 15 C        3.7240     1.4880    -0.1120 C.3   1 <1>  -0.0190 
 16 C       -2.5010     2.2850     0.3760 C.3   1 <1>   0.0400 
 17 C       -2.9780    -1.7350     1.9460 C.ar  1 <1>  -0.1500 
 18 O       -2.8930    -3.8910     1.0580 O.3   1 <1>  -0.3630 
 19 C        4.7680     2.3070     0.6630 C.2   1 <1>   0.5690 
 20 C       -2.5160    -4.8380     0.0820 C.3   1 <1>   0.0400 
 21 O        4.5230     3.4710     0.8860 O.2   1 <1>  -0.5700 
 22 N        5.9450     1.7430     1.0930 N.am  1 <1>  -0.6600 
 23 C        6.3690     0.3250     0.9100 C.3   1 <1>   0.2840 
 24 C        7.0060     2.5700     1.7280 C.3   1 <1>   0.1400 
 25 C        7.7570     0.2290     0.2820 C.ar  1 <1>  -0.1430 
 26 C        8.1860     2.6840     0.7620 C.3   1 <1>  -0.0170 
 27 C        8.6140     1.3250     0.2220 C.ar  1 <1>  -0.1430 
 28 C        8.1760    -0.9910    -0.2300 C.ar  1 <1>  -0.1500 
 29 C        9.8700     1.1870    -0.3480 C.ar  1 <1>  -0.1500 
 30 C        9.4320    -1.1230    -0.7970 C.ar  1 <1>  -0.1500 
 31 C       10.2790    -0.0330    -0.8550 C.ar  1 <1>  -0.1500 
 32 H        1.0420     2.1650    -2.1900 H     1 <1>   0.0800 
 33 H        2.1930     0.8680    -2.3960 H     1 <1>   0.0800 
 34 H        2.3360    -0.8890    -0.6220 H     1 <1>   0.0800 
 35 H        1.2560    -0.7740     0.7470 H     1 <1>   0.0800 
 36 H       -1.3470    -2.7400    -0.8320 H     1 <1>   0.1500 
 37 H        2.2500     3.0570    -0.3060 H     1 <1>   0.0800 
 38 H        3.3230     2.9280    -1.6660 H     1 <1>   0.0800 
 39 H        3.5200    -0.0710     1.3710 H     1 <1>   0.0800 
 40 H        2.3780     1.2240     1.5480 H     1 <1>   0.0800 
 41 H       -2.9920     0.2730     2.6790 H     1 <1>   0.1500 
 42 H        4.2450     0.8630    -0.8120 H     1 <1>   0.0800 
 43 H       -2.0940     3.2800     0.3970 H     1 <1>   0.0800 
 44 H       -3.3860     2.2340     0.9850 H     1 <1>   0.0800 
 45 H       -2.7250     2.0030    -0.6380 H     1 <1>   0.0800 
 46 H       -3.5960    -2.1250     2.7350 H     1 <1>   0.1500 
 47 H       -2.9390    -5.7870     0.3570 H     1 <1>   0.0800 
 48 H       -1.4430    -4.9100     0.0590 H     1 <1>   0.0800 
 49 H       -2.9030    -4.5290    -0.8730 H     1 <1>   0.0800 
 50 H        5.6740    -0.2160     0.2990 H     1 <1>   0.0800 
 51 H        6.3950    -0.1490     1.8750 H     1 <1>   0.0800 
 52 H        7.3260     2.0960     2.6390 H     1 <1>   0.0800 
 53 H        6.6400     3.5530     1.9740 H     1 <1>   0.0800 
 54 H        9.0090     3.1530     1.2710 H     1 <1>   0.0800 
 55 H        7.9020     3.3160    -0.0600 H     1 <1>   0.0800 
 56 H        7.5290    -1.8490    -0.1900 H     1 <1>   0.1500 
 57 H       10.5350     2.0310    -0.4000 H     1 <1>   0.1500 
 58 H        9.7500    -2.0720    -1.1910 H     1 <1>   0.1500 
 59 H       11.2560    -0.1320    -1.2960 H     1 <1>   0.1500 
@<TRIPOS>BOND
  1   1   2  2   
  2   1   3  2   
  3   1   4  am  
  4   1   5  1   
  5   4   6  1   
  6   4   7  1   
  7   5   8  ar  
  8   5   9  ar  
  9   6  10  1   
 10   6  32  1   
 11   6  33  1   
 12   7  11  1   
 13   7  34  1   
 14   7  35  1   
 15   8  12  1   
 16   8  13  ar  
 17   9  14  ar  
 18   9  36  1   
 19  10  15  1   
 20  10  37  1   
 21  10  38  1   
 22  11  15  1   
 23  11  39  1   
 24  11  40  1   
 25  12  16  1   
 26  13  17  ar  
 27  13  41  1   
 28  14  17  ar  
 29  14  18  1   
 30  15  19  1   
 31  15  42  1   
 32  16  43  1   
 33  16  44  1   
 34  16  45  1   
 35  17  46  1   
 36  18  20  1   
 37  19  21  2   
 38  19  22  am  
 39  20  47  1   
 40  20  48  1   
 41  20  49  1   
 42  22  23  1   
 43  22  24  1   
 44  23  25  1   
 45  23  50  1   
 46  23  51  1   
 47  24  26  1   
 48  24  52  1   
 49  24  53  1   
 50  25  27  ar  
 51  25  28  ar  
 52  26  27  1   
 53  26  54  1   
 54  26  55  1   
 55  27  29  ar  
 56  28  30  ar  
 57  28  56  1   
 58  29  31  ar  
 59  29  57  1   
 60  30  31  ar  
 61  30  58  1   
 62  31  59  1   
@<TRIPOS>SUBSTRUCTURE
  1 ****  11 GROUP 4 **** **** 0

# MOE 2024.06 (io_trps.svl 2023.06)
