@<TRIPOS>MOLECULE
3,4-Dimethoxy-N-methyl-N-[4-(pyrrolidine-1-carbonyl)-phenyl]-benzenesulfonamide
52 54 1 0 0 
SMALL
USER_CHARGES


@<TRIPOS>ATOM
  1 S       -0.6770    -1.8540    -1.3530 S.o2  1 <1>   1.4470 
  2 O       -1.5310    -1.8220    -2.5210 O.2   1 <1>  -0.6500 
  3 O       -0.3790    -3.1090    -0.7030 O.2   1 <1>  -0.6500 
  4 N        0.8330    -1.1420    -1.8380 N.am  1 <1>  -0.6930 
  5 C       -1.2710    -0.6430    -0.1420 C.ar  1 <1>  -0.0090 
  6 C        1.8960    -1.0440    -0.9530 C.ar  1 <1>   0.1990 
  7 C        0.8290    -0.3290    -3.0790 C.3   1 <1>   0.1160 
  8 C       -2.2610     0.2770    -0.4680 C.ar  1 <1>  -0.1500 
  9 C       -0.7270    -0.5830     1.1330 C.ar  1 <1>  -0.1500 
 10 C        2.5370    -2.1810    -0.4750 C.ar  1 <1>  -0.1500 
 11 C        2.3420     0.1960    -0.5040 C.ar  1 <1>  -0.1500 
 12 C       -2.7100     1.2370     0.4360 C.ar  1 <1>   0.0830 
 13 C       -1.1520     0.3640     2.0450 C.ar  1 <1>  -0.1500 
 14 C        3.5870    -2.0830     0.4160 C.ar  1 <1>  -0.1500 
 15 C        3.3930     0.2910     0.3870 C.ar  1 <1>  -0.1500 
 16 O       -3.6870     2.1210     0.0800 O.3   1 <1>  -0.3630 
 17 C       -2.1360     1.2820     1.7200 C.ar  1 <1>   0.0830 
 18 C        4.0500    -0.8450     0.8620 C.ar  1 <1>   0.0860 
 19 C       -4.4860     1.9440    -1.0700 C.3   1 <1>   0.0400 
 20 O       -2.4380     2.1500     2.7290 O.3   1 <1>  -0.3630 
 21 C        5.1590    -0.7550     1.7880 C.2   1 <1>   0.5440 
 22 C       -3.4280     3.1480     2.6350 C.3   1 <1>   0.0400 
 23 O        5.1180    -1.3720     2.8370 O.2   1 <1>  -0.5700 
 24 N        6.2730     0.0050     1.5080 N.am  1 <1>  -0.6600 
 25 C        7.4290     0.0900     2.4290 C.3   1 <1>   0.1400 
 26 C        6.6380     0.4930     0.1580 C.3   1 <1>   0.1400 
 27 C        8.6250     0.3690     1.5280 C.3   1 <1>  -0.1600 
 28 C        8.0350     1.0830     0.3150 C.3   1 <1>  -0.1600 
 29 H        0.1550     0.5030    -2.9700 H     1 <1>   0.0800 
 30 H        0.5050    -0.9370    -3.9070 H     1 <1>   0.0800 
 31 H        1.8180     0.0390    -3.2890 H     1 <1>   0.0800 
 32 H       -2.6720     0.2250    -1.4590 H     1 <1>   0.1500 
 33 H        0.0410    -1.2850     1.4170 H     1 <1>   0.1500 
 34 H        2.2030    -3.1490    -0.8070 H     1 <1>   0.1500 
 35 H        1.8500     1.0880    -0.8450 H     1 <1>   0.1500 
 36 H       -0.7160     0.3960     3.0280 H     1 <1>   0.1500 
 37 H        4.0660    -2.9750     0.7830 H     1 <1>   0.1500 
 38 H        3.7150     1.2570     0.7350 H     1 <1>   0.1500 
 39 H       -5.2600     2.6900    -1.0570 H     1 <1>   0.0800 
 40 H       -4.9260     0.9620    -1.0440 H     1 <1>   0.0800 
 41 H       -3.8750     2.0720    -1.9460 H     1 <1>   0.0800 
 42 H       -3.4640     3.6720     3.5730 H     1 <1>   0.0800 
 43 H       -4.3770     2.6810     2.4410 H     1 <1>   0.0800 
 44 H       -3.1630     3.8290     1.8460 H     1 <1>   0.0800 
 45 H        7.5570    -0.8250     2.9830 H     1 <1>   0.0800 
 46 H        7.2690     0.9050     3.1130 H     1 <1>   0.0800 
 47 H        5.9420     1.2360    -0.1890 H     1 <1>   0.0800 
 48 H        6.6560    -0.3390    -0.5260 H     1 <1>   0.0800 
 49 H        9.0580    -0.5690     1.2260 H     1 <1>   0.0800 
 50 H        9.3740     0.9570     2.0290 H     1 <1>   0.0800 
 51 H        7.9480     2.1360     0.5190 H     1 <1>   0.0800 
 52 H        8.6290     0.9460    -0.5710 H     1 <1>   0.0800 
@<TRIPOS>BOND
  1   1   2  2   
  2   1   3  2   
  3   1   4  am  
  4   1   5  1   
  5   4   6  1   
  6   4   7  1   
  7   5   8  ar  
  8   5   9  ar  
  9   6  10  ar  
 10   6  11  ar  
 11   7  29  1   
 12   7  30  1   
 13   7  31  1   
 14   8  12  ar  
 15   8  32  1   
 16   9  13  ar  
 17   9  33  1   
 18  10  14  ar  
 19  10  34  1   
 20  11  15  ar  
 21  11  35  1   
 22  12  16  1   
 23  12  17  ar  
 24  13  17  ar  
 25  13  36  1   
 26  14  18  ar  
 27  14  37  1   
 28  15  18  ar  
 29  15  38  1   
 30  16  19  1   
 31  17  20  1   
 32  18  21  1   
 33  19  39  1   
 34  19  40  1   
 35  19  41  1   
 36  20  22  1   
 37  21  23  2   
 38  21  24  am  
 39  22  42  1   
 40  22  43  1   
 41  22  44  1   
 42  24  25  1   
 43  24  26  1   
 44  25  27  1   
 45  25  45  1   
 46  25  46  1   
 47  26  28  1   
 48  26  47  1   
 49  26  48  1   
 50  27  28  1   
 51  27  49  1   
 52  27  50  1   
 53  28  51  1   
 54  28  52  1   
@<TRIPOS>SUBSTRUCTURE
  1 ****  11 GROUP 4 **** **** 0

# MOE 2024.06 (io_trps.svl 2023.06)
