@<TRIPOS>MOLECULE
6-(2,3-Dihydro-benzo[1,4]dioxin-6-yl)-3-ethyl-[1,2,4]triazolo[3,4-b][1,3,4]thiad
32 35 1 0 0 
SMALL
USER_CHARGES


@<TRIPOS>ATOM
  1 S       -0.3750    -0.1710     0.2950 S.3   1 <1>  -0.1970 
  2 C        0.5200     1.3250     0.2220 C.2   1 <1>   0.2420 
  3 C       -1.8980     0.7560     0.1340 C.2   1 <1>   0.5050 
  4 N        1.7560     1.6730     0.2630 N.2   1 <1>  -0.3380 
  5 N       -0.3380     2.3170     0.0930 N.pl3 1 <1>   0.5050 
  6 N       -1.7000     2.0250     0.0410 N.2   1 <1>  -0.6520 
  7 C       -3.1570     0.0360     0.1220 C.ar  1 <1>   0.0860 
  8 N        1.7280     3.0160     0.1510 N.2   1 <1>  -0.3380 
  9 C        0.4820     3.3800     0.0510 C.2   1 <1>   0.0060 
 10 C       -4.3560     0.7420    -0.0160 C.ar  1 <1>  -0.1500 
 11 C       -3.2490    -1.3570     0.2460 C.ar  1 <1>  -0.1500 
 12 C       -0.0500     4.8000    -0.0950 C.3   1 <1>   0.0200 
 13 C       -5.5780     0.0990    -0.0320 C.ar  1 <1>   0.0830 
 14 C       -4.4690    -2.0110     0.2250 C.ar  1 <1>  -0.1500 
 15 C        1.0600     5.8580    -0.1250 C.3   1 <1>  -0.2400 
 16 O       -6.7080     0.8400    -0.1520 O.3   1 <1>  -0.3620 
 17 C       -5.6380    -1.2900     0.0790 C.ar  1 <1>   0.0830 
 18 C       -7.9320     0.2010     0.1620 C.3   1 <1>   0.1200 
 19 O       -6.8210    -1.9490     0.0430 O.3   1 <1>  -0.3630 
 20 C       -7.9510    -1.2250    -0.4070 C.3   1 <1>   0.1200 
 21 H       -4.3410     1.8130    -0.1110 H     1 <1>   0.1500 
 22 H       -2.3640    -1.9570     0.3600 H     1 <1>   0.1500 
 23 H       -0.7130     5.0070     0.7260 H     1 <1>   0.0800 
 24 H       -0.6210     4.8630    -1.0050 H     1 <1>   0.0800 
 25 H       -4.5220    -3.0810     0.3180 H     1 <1>   0.1500 
 26 H        1.6310     5.8220     0.7860 H     1 <1>   0.0800 
 27 H        0.6350     6.8400    -0.2300 H     1 <1>   0.0800 
 28 H        1.7230     5.6770    -0.9520 H     1 <1>   0.0800 
 29 H       -8.7300     0.7890    -0.2540 H     1 <1>   0.0800 
 30 H       -8.0320     0.1770     1.2330 H     1 <1>   0.0800 
 31 H       -7.9240    -1.1980    -1.4820 H     1 <1>   0.0800 
 32 H       -8.8310    -1.7530    -0.0890 H     1 <1>   0.0800 
@<TRIPOS>BOND
  1   1   2  1   
  2   1   3  1   
  3   2   4  2   
  4   2   5  1   
  5   3   6  2   
  6   3   7  1   
  7   4   8  1   
  8   5   6  1   
  9   5   9  1   
 10   7  10  ar  
 11   7  11  ar  
 12   8   9  2   
 13   9  12  1   
 14  10  13  ar  
 15  10  21  1   
 16  11  14  ar  
 17  11  22  1   
 18  12  15  1   
 19  12  23  1   
 20  12  24  1   
 21  13  16  1   
 22  13  17  ar  
 23  14  17  ar  
 24  14  25  1   
 25  15  26  1   
 26  15  27  1   
 27  15  28  1   
 28  16  18  1   
 29  17  19  1   
 30  18  20  1   
 31  18  29  1   
 32  18  30  1   
 33  19  20  1   
 34  20  31  1   
 35  20  32  1   
@<TRIPOS>SUBSTRUCTURE
  1 ****   3 GROUP 4 **** **** 0

# MOE 2024.06 (io_trps.svl 2023.06)
