@<TRIPOS>MOLECULE
2,8,8-Trimethyl-3-propyl-8,9-dihydro-2H,6H-7-oxa-11-thia-2,4,10-triaza-benzo[b]f
45 48 1 0 0 
SMALL
USER_CHARGES


@<TRIPOS>ATOM
  1 S        0.2430    -1.2310     0.3940 S.3   1 <1>  -0.0800 
  2 C       -1.2260    -0.2790     0.1400 C.ar  1 <1>   0.2970 
  3 C        1.2430     0.2300     0.4410 C.2   1 <1>  -0.0450 
  4 N       -2.4140    -0.8440     0.0160 N.ar  1 <1>  -0.5670 
  5 C       -0.9170     1.0740     0.1000 C.ar  1 <1>   0.0000 
  6 C        2.6370     0.3050     0.6240 C.2   1 <1>   0.7150 
  7 C        0.4850     1.3350     0.2730 C.2   1 <1>   0.1250 
  8 C       -3.3940     0.0260    -0.1670 C.ar  1 <1>   0.1660 
  9 C       -1.9660     1.9560    -0.0920 C.ar  1 <1>  -0.1500 
 10 O        3.3490    -0.6830     0.7590 O.2   1 <1>  -0.5700 
 11 N        3.1770     1.5800     0.6400 N.am  1 <1>  -0.4200 
 12 N        1.0570     2.5790     0.2730 N.2   1 <1>  -0.5750 
 13 C       -3.2280     1.4120    -0.2270 C.ar  1 <1>  -0.1430 
 14 C       -4.7810    -0.5600    -0.3330 C.3   1 <1>  -0.0170 
 15 C        2.3330     2.6720     0.4430 C.2   1 <1>   0.4490 
 16 C        4.6560     1.6930     0.8410 C.3   1 <1>   0.0600 
 17 C       -4.4240     2.3350    -0.4210 C.3   1 <1>   0.2640 
 18 C       -5.8870     0.4720    -0.0700 C.3   1 <1>   0.2800 
 19 C        2.9070     4.0870     0.4140 C.3   1 <1>  -0.0990 
 20 O       -5.5860     1.6370    -0.7730 O.3   1 <1>  -0.5600 
 21 C       -6.0620     0.7880     1.4250 C.3   1 <1>  -0.2400 
 22 C       -7.2210    -0.0160    -0.6380 C.3   1 <1>  -0.2400 
 23 C        3.6320     4.4040    -0.9050 C.3   1 <1>  -0.1600 
 24 C        4.1880     5.8310    -0.9040 C.3   1 <1>  -0.2400 
 25 H       -1.7800     3.0150    -0.1300 H     1 <1>   0.1500 
 26 H       -4.9020    -1.3940     0.3330 H     1 <1>   0.0800 
 27 H       -4.8640    -0.9330    -1.3380 H     1 <1>   0.0800 
 28 H        4.9840     0.9720     1.5710 H     1 <1>   0.0800 
 29 H        4.9440     2.6640     1.1930 H     1 <1>   0.0800 
 30 H        5.1590     1.4900    -0.0880 H     1 <1>   0.0800 
 31 H       -4.2240     3.0370    -1.2120 H     1 <1>   0.0800 
 32 H       -4.6220     2.8870     0.4810 H     1 <1>   0.0800 
 33 H        3.5510     4.2460     1.2580 H     1 <1>   0.0800 
 34 H        2.0930     4.7830     0.5230 H     1 <1>   0.0800 
 35 H       -5.1270     1.0510     1.8860 H     1 <1>   0.0800 
 36 H       -6.4400    -0.0770     1.9380 H     1 <1>   0.0800 
 37 H       -6.7640     1.5920     1.5560 H     1 <1>   0.0800 
 38 H       -7.9880     0.7170    -0.4670 H     1 <1>   0.0800 
 39 H       -7.1350    -0.1890    -1.6950 H     1 <1>   0.0800 
 40 H       -7.5160    -0.9350    -0.1640 H     1 <1>   0.0800 
 41 H        2.9400     4.2930    -1.7230 H     1 <1>   0.0800 
 42 H        4.4410     3.7130    -1.0660 H     1 <1>   0.0800 
 43 H        3.3920     6.5450    -0.7790 H     1 <1>   0.0800 
 44 H        4.6810     6.0340    -1.8390 H     1 <1>   0.0800 
 45 H        4.8990     5.9620    -0.1080 H     1 <1>   0.0800 
@<TRIPOS>BOND
  1   1   2  1   
  2   1   3  1   
  3   2   4  ar  
  4   2   5  ar  
  5   3   6  1   
  6   3   7  2   
  7   4   8  ar  
  8   5   7  1   
  9   5   9  ar  
 10   6  10  2   
 11   6  11  am  
 12   7  12  1   
 13   8  13  ar  
 14   8  14  1   
 15   9  13  ar  
 16   9  25  1   
 17  11  15  1   
 18  11  16  1   
 19  12  15  2   
 20  13  17  1   
 21  14  18  1   
 22  14  26  1   
 23  14  27  1   
 24  15  19  1   
 25  16  28  1   
 26  16  29  1   
 27  16  30  1   
 28  17  20  1   
 29  17  31  1   
 30  17  32  1   
 31  18  20  1   
 32  18  21  1   
 33  18  22  1   
 34  19  23  1   
 35  19  33  1   
 36  19  34  1   
 37  21  35  1   
 38  21  36  1   
 39  21  37  1   
 40  22  38  1   
 41  22  39  1   
 42  22  40  1   
 43  23  24  1   
 44  23  41  1   
 45  23  42  1   
 46  24  43  1   
 47  24  44  1   
 48  24  45  1   
@<TRIPOS>SUBSTRUCTURE
  1 ****   5 GROUP 4 **** **** 0

# MOE 2024.06 (io_trps.svl 2023.06)
