@<TRIPOS>MOLECULE
Benzyl-(4-dimethylamino-6-morpholin-4-yl-[1,3,5]triazin-2-yl)-cyanamide
46 48 1 0 0 
SMALL
USER_CHARGES


@<TRIPOS>ATOM
  1 O       -1.2480    -0.5150     1.0760 O.3   1 <1>  -0.5600 
  2 C       -1.0250     0.6900     0.3940 C.3   1 <1>   0.1200 
  3 C       -2.5960    -0.7400     1.3910 C.3   1 <1>   0.1200 
  4 C       -1.4920     1.8970     1.2290 C.3   1 <1>   0.2090 
  5 C       -3.1410     0.3810     2.2930 C.3   1 <1>   0.2090 
  6 N       -2.9100     1.7160     1.6640 N.pl3 1 <1>  -0.8380 
  7 C       -3.9120     2.3930     1.0140 C.ar  1 <1>   0.7200 
  8 N       -3.7250     3.6700     0.8350 N.ar  1 <1>  -0.6200 
  9 N       -4.9510     1.7110     0.6190 N.ar  1 <1>  -0.6200 
 10 C       -4.6750     4.2620     0.1640 C.ar  1 <1>   0.8190 
 11 C       -5.8410     2.4110    -0.0310 C.ar  1 <1>   0.7200 
 12 N       -5.7530     3.6870    -0.2930 N.ar  1 <1>  -0.6200 
 13 N       -4.5270     5.6070    -0.0750 N.pl3 1 <1>  -0.6810 
 14 N       -6.9660     1.7510    -0.4850 N.pl3 1 <1>  -0.8380 
 15 C       -5.2080     6.2460    -1.1180 C.1   1 <1>   0.6830 
 16 C       -3.6070     6.4550     0.7140 C.3   1 <1>   0.3390 
 17 C       -7.8910     2.3550    -1.4870 C.3   1 <1>   0.1290 
 18 C       -7.3430     0.3910    -0.0060 C.3   1 <1>   0.1290 
 19 N       -5.7350     6.8200    -1.9480 N.1   1 <1>  -0.5570 
 20 C       -2.2370     6.5360     0.0510 C.ar  1 <1>  -0.1440 
 21 C       -2.0240     7.3660    -1.0400 C.ar  1 <1>  -0.1500 
 22 C       -1.1830     5.7820     0.5440 C.ar  1 <1>  -0.1500 
 23 C       -0.7730     7.4410    -1.6290 C.ar  1 <1>  -0.1500 
 24 C        0.0690     5.8560    -0.0430 C.ar  1 <1>  -0.1500 
 25 C        0.2740     6.6860    -1.1300 C.ar  1 <1>  -0.1500 
 26 H       -1.5540     0.6570    -0.5420 H     1 <1>   0.0800 
 27 H        0.0290     0.7630     0.1930 H     1 <1>   0.0800 
 28 H       -2.6630    -1.6880     1.8940 H     1 <1>   0.0800 
 29 H       -3.1620    -0.7900     0.4770 H     1 <1>   0.0800 
 30 H       -1.3830     2.7900     0.6390 H     1 <1>   0.0800 
 31 H       -0.8640     1.9950     2.0970 H     1 <1>   0.0800 
 32 H       -2.6350     0.3460     3.2420 H     1 <1>   0.0800 
 33 H       -4.1890     0.2220     2.4790 H     1 <1>   0.0800 
 34 H       -3.5100     6.0610     1.7120 H     1 <1>   0.0800 
 35 H       -4.0180     7.4460     0.8030 H     1 <1>   0.0800 
 36 H       -8.6810     2.8800    -0.9790 H     1 <1>   0.0800 
 37 H       -8.3170     1.5880    -2.1090 H     1 <1>   0.0800 
 38 H       -7.3650     3.0480    -2.1220 H     1 <1>   0.0800 
 39 H       -6.9390     0.2050     0.9740 H     1 <1>   0.0800 
 40 H       -6.9630    -0.3480    -0.6890 H     1 <1>   0.0800 
 41 H       -8.4140     0.3040     0.0500 H     1 <1>   0.0800 
 42 H       -2.8290     7.9590    -1.4400 H     1 <1>   0.1500 
 43 H       -1.3350     5.1320     1.3890 H     1 <1>   0.1500 
 44 H       -0.6160     8.0860    -2.4760 H     1 <1>   0.1500 
 45 H        0.8820     5.2680     0.3460 H     1 <1>   0.1500 
 46 H        1.2460     6.7460    -1.5880 H     1 <1>   0.1500 
@<TRIPOS>BOND
  1   1   2  1   
  2   1   3  1   
  3   2   4  1   
  4   2  26  1   
  5   2  27  1   
  6   3   5  1   
  7   3  28  1   
  8   3  29  1   
  9   4   6  1   
 10   4  30  1   
 11   4  31  1   
 12   5   6  1   
 13   5  32  1   
 14   5  33  1   
 15   6   7  1   
 16   7   8  ar  
 17   7   9  ar  
 18   8  10  ar  
 19   9  11  ar  
 20  10  12  ar  
 21  10  13  1   
 22  11  12  ar  
 23  11  14  1   
 24  13  15  1   
 25  13  16  1   
 26  14  17  1   
 27  14  18  1   
 28  15  19  3   
 29  16  20  1   
 30  16  34  1   
 31  16  35  1   
 32  17  36  1   
 33  17  37  1   
 34  17  38  1   
 35  18  39  1   
 36  18  40  1   
 37  18  41  1   
 38  20  21  ar  
 39  20  22  ar  
 40  21  23  ar  
 41  21  42  1   
 42  22  24  ar  
 43  22  43  1   
 44  23  25  ar  
 45  23  44  1   
 46  24  25  ar  
 47  24  45  1   
 48  25  46  1   
@<TRIPOS>SUBSTRUCTURE
  1 ****   8 GROUP 4 **** **** 0

# MOE 2024.06 (io_trps.svl 2023.06)
