@<TRIPOS>MOLECULE
6-Furan-2-yl-3-isopropyl-[1,2,4]triazolo[3,4-b][1,3,4]thiadiazole
26 28 1 0 0 
SMALL
USER_CHARGES


@<TRIPOS>ATOM
  1 S       -0.6440    -0.0210     1.0960 S.3   1 <1>  -0.1970 
  2 C        0.3510     1.4070     0.9910 C.2   1 <1>   0.2420 
  3 C       -1.9530     0.8700     0.2680 C.2   1 <1>   0.6760 
  4 N        1.5400     1.7380     1.3460 N.2   1 <1>  -0.3380 
  5 N       -0.3380     2.3560     0.3870 N.pl3 1 <1>   0.5050 
  6 N       -1.6390     2.0820    -0.0310 N.2   1 <1>  -0.6520 
  7 C       -3.1920     0.1790     0.0210 C.2   1 <1>   0.0550 
  8 N        1.6620     3.0200     0.9490 N.2   1 <1>  -0.3380 
  9 C        0.5430     3.3700     0.3840 C.2   1 <1>   0.0060 
 10 O       -3.3650    -1.0860     0.3940 O.3   1 <1>  -0.2800 
 11 C       -4.3360     0.6120    -0.5800 C.2   1 <1>  -0.1500 
 12 C        0.2090     4.7330    -0.2150 C.3   1 <1>   0.1000 
 13 C       -4.5770    -1.4660     0.0500 C.2   1 <1>  -0.0100 
 14 C       -5.2330    -0.4570    -0.5600 C.2   1 <1>  -0.1500 
 15 C        1.4690     5.4790    -0.6710 C.3   1 <1>  -0.2400 
 16 C       -0.5630     5.5770     0.8040 C.3   1 <1>  -0.2400 
 17 H       -4.5320     1.5850    -0.9960 H     1 <1>   0.1500 
 18 H       -0.4180     4.5800    -1.0780 H     1 <1>   0.0800 
 19 H       -4.8930    -2.4700     0.2760 H     1 <1>   0.1500 
 20 H       -6.2330    -0.4490    -0.9560 H     1 <1>   0.1500 
 21 H        2.1130     5.6770     0.1680 H     1 <1>   0.0800 
 22 H        1.2070     6.4130    -1.1350 H     1 <1>   0.0800 
 23 H        2.0120     4.8820    -1.3820 H     1 <1>   0.0800 
 24 H        0.0330     5.7320     1.6860 H     1 <1>   0.0800 
 25 H       -1.4730     5.0790     1.0890 H     1 <1>   0.0800 
 26 H       -0.8160     6.5350     0.3840 H     1 <1>   0.0800 
@<TRIPOS>BOND
  1   1   2  1   
  2   1   3  1   
  3   2   4  2   
  4   2   5  1   
  5   3   6  2   
  6   3   7  1   
  7   4   8  1   
  8   5   6  1   
  9   5   9  1   
 10   7  10  1   
 11   7  11  2   
 12   8   9  2   
 13   9  12  1   
 14  10  13  1   
 15  11  14  1   
 16  11  17  1   
 17  12  15  1   
 18  12  16  1   
 19  12  18  1   
 20  13  14  2   
 21  13  19  1   
 22  14  20  1   
 23  15  21  1   
 24  15  22  1   
 25  15  23  1   
 26  16  24  1   
 27  16  25  1   
 28  16  26  1   
@<TRIPOS>SUBSTRUCTURE
  1 ****   6 GROUP 4 **** **** 0

# MOE 2024.06 (io_trps.svl 2023.06)
