@<TRIPOS>MOLECULE
Cyclohexanecarboxylic acid [2-(5-methyl-1H-indol-3-yl)-ethyl]-amide
45 47 1 0 0 
SMALL
USER_CHARGES


@<TRIPOS>ATOM
  1 O        0.8380    -0.9160     1.3900 O.2   1 <1>  -0.5700 
  2 C        1.0070    -1.4010     0.2970 C.2   1 <1>   0.5690 
  3 N        1.9070    -0.8870    -0.5830 N.am  1 <1>  -0.7300 
  4 C        0.1990    -2.6300    -0.1210 C.3   1 <1>  -0.0190 
  5 C        2.7650     0.2960    -0.3260 C.3   1 <1>   0.1400 
  6 C       -1.3160    -2.3490    -0.0860 C.3   1 <1>  -0.1600 
  7 C        0.5450    -3.8490     0.7550 C.3   1 <1>  -0.1600 
  8 C        4.2220    -0.1360    -0.1620 C.3   1 <1>   0.0210 
  9 C       -2.1290    -3.5860    -0.4940 C.3   1 <1>  -0.1600 
 10 C       -0.2680    -5.0870     0.3470 C.3   1 <1>  -0.1600 
 11 C        5.1640     1.0480    -0.0160 C.2   1 <1>  -0.1810 
 12 C       -1.7740    -4.7950     0.3810 C.3   1 <1>  -0.1600 
 13 C        6.5710     0.9130     0.0180 C.ar  1 <1>   0.0000 
 14 C        4.8790     2.3680     0.1030 C.2   1 <1>  -0.3020 
 15 C        7.0880     2.1960     0.1570 C.ar  1 <1>  -0.1520 
 16 C        7.4450    -0.1770    -0.0540 C.ar  1 <1>  -0.1500 
 17 N        6.0410     3.0780     0.2090 N.pl3 1 <1>   0.0330 
 18 C        8.4670     2.4100     0.2200 C.ar  1 <1>  -0.1500 
 19 C        8.8060     0.0280     0.0070 C.ar  1 <1>  -0.1440 
 20 C        9.3120     1.3270     0.1440 C.ar  1 <1>  -0.1500 
 21 C        9.7770    -1.1350    -0.0690 C.3   1 <1>  -0.0970 
 22 H        2.0200    -1.3260    -1.4960 H     1 <1>   0.3700 
 23 H        0.4630    -2.8700    -1.1350 H     1 <1>   0.0800 
 24 H        2.4390     0.8020     0.5680 H     1 <1>   0.0800 
 25 H        2.6780     0.9810    -1.1520 H     1 <1>   0.0800 
 26 H       -1.5470    -1.5310    -0.7450 H     1 <1>   0.0800 
 27 H       -1.5970    -2.0540     0.9110 H     1 <1>   0.0800 
 28 H        0.3370    -3.6120     1.7860 H     1 <1>   0.0800 
 29 H        1.5960    -4.0650     0.6750 H     1 <1>   0.0800 
 30 H        4.5230    -0.7040    -1.0240 H     1 <1>   0.0800 
 31 H        4.3100    -0.7580     0.7110 H     1 <1>   0.0800 
 32 H       -1.9300    -3.8210    -1.5260 H     1 <1>   0.0800 
 33 H       -3.1800    -3.3720    -0.4020 H     1 <1>   0.0800 
 34 H       -0.0450    -5.9000     1.0170 H     1 <1>   0.0800 
 35 H        0.0150    -5.3900    -0.6460 H     1 <1>   0.0800 
 36 H       -2.3170    -5.6600     0.0390 H     1 <1>   0.0800 
 37 H       -2.0740    -4.5980     1.3960 H     1 <1>   0.0800 
 38 H        3.9210     2.8570     0.1230 H     1 <1>   0.1500 
 39 H        7.0330    -1.1630    -0.1570 H     1 <1>   0.1500 
 40 H        6.1310     4.0930     0.3160 H     1 <1>   0.2700 
 41 H        8.8530     3.4080     0.3260 H     1 <1>   0.1500 
 42 H       10.3760     1.4740     0.1910 H     1 <1>   0.1500 
 43 H        9.2520    -2.0680    -0.1660 H     1 <1>   0.0800 
 44 H       10.3770    -1.1700     0.8220 H     1 <1>   0.0800 
 45 H       10.4230    -1.0160    -0.9200 H     1 <1>   0.0800 
@<TRIPOS>BOND
  1   1   2  2   
  2   2   3  am  
  3   2   4  1   
  4   3   5  1   
  5   3  22  1   
  6   4   6  1   
  7   4   7  1   
  8   4  23  1   
  9   5   8  1   
 10   5  24  1   
 11   5  25  1   
 12   6   9  1   
 13   6  26  1   
 14   6  27  1   
 15   7  10  1   
 16   7  28  1   
 17   7  29  1   
 18   8  11  1   
 19   8  30  1   
 20   8  31  1   
 21   9  12  1   
 22   9  32  1   
 23   9  33  1   
 24  10  12  1   
 25  10  34  1   
 26  10  35  1   
 27  11  13  1   
 28  11  14  2   
 29  12  36  1   
 30  12  37  1   
 31  13  15  ar  
 32  13  16  ar  
 33  14  17  1   
 34  14  38  1   
 35  15  17  1   
 36  15  18  ar  
 37  16  19  ar  
 38  16  39  1   
 39  17  40  1   
 40  18  20  ar  
 41  18  41  1   
 42  19  20  ar  
 43  19  21  1   
 44  20  42  1   
 45  21  43  1   
 46  21  44  1   
 47  21  45  1   
@<TRIPOS>SUBSTRUCTURE
  1 ****   8 GROUP 4 **** **** 0

# MOE 2024.06 (io_trps.svl 2023.06)
