@<TRIPOS>MOLECULE
4-(3-Methoxy-phenyl)-6-(2-methyl-piperidin-1-ylmethyl)-2-oxo-1,2,3,4-tetrahydro-
55 57 1 0 0 
SMALL
USER_CHARGES


@<TRIPOS>ATOM
  1 O       -0.3400     0.9850     0.8450 O.2   1 <1>  -0.5700 
  2 C       -1.4920     1.3260     0.9510 C.2   1 <1>   0.6900 
  3 N       -2.4110     0.8620     0.0690 N.am  1 <1>  -0.5390 
  4 N       -1.8880     2.1740     1.9100 N.am  1 <1>  -0.7300 
  5 C       -3.7540     1.2100     0.0960 C.2   1 <1>  -0.0290 
  6 C       -3.1980     2.8520     1.9060 C.3   1 <1>   0.5020 
  7 C       -4.2040     2.1380     0.9910 C.2   1 <1>  -0.1240 
  8 C       -4.6320     0.4720    -0.9210 C.3   1 <1>   0.4810 
  9 C       -2.9770     4.2980     1.4700 C.ar  1 <1>  -0.1440 
 10 C       -5.5650     2.5340     1.1960 C.2   1 <1>   0.7060 
 11 N       -4.8330    -0.9380    -0.4710 N.4   1 <1>  -0.9590 
 12 C       -2.3640     4.5960     0.2590 C.ar  1 <1>  -0.1500 
 13 C       -3.3940     5.3410     2.2880 C.ar  1 <1>  -0.1500 
 14 O       -6.4860     2.0140     0.5960 O.2   1 <1>  -0.5700 
 15 O       -5.8500     3.4590     2.1160 O.3   1 <1>  -0.4300 
 16 C       -5.2830    -1.8570    -1.5560 C.3   1 <1>   0.4230 
 17 C       -5.7820    -0.9430     0.6850 C.3   1 <1>   0.3430 
 18 C       -2.1710     5.9170    -0.1330 C.ar  1 <1>   0.0830 
 19 C       -3.2110     6.6570     1.8990 C.ar  1 <1>  -0.1500 
 20 C       -7.1710     3.9180     2.3420 C.3   1 <1>   0.0400 
 21 C       -5.4090    -3.2830    -1.0000 C.3   1 <1>  -0.1600 
 22 C       -4.2830    -1.8550    -2.7140 C.3   1 <1>  -0.2400 
 23 C       -5.9030    -2.3470     1.2730 C.3   1 <1>  -0.1600 
 24 O       -1.5700     6.2780    -1.2930 O.3   1 <1>  -0.3630 
 25 C       -2.6030     6.9420     0.6910 C.ar  1 <1>  -0.1500 
 26 C       -6.3440    -3.3570     0.2110 C.3   1 <1>  -0.1600 
 27 C       -0.8480     5.3440    -2.0650 C.3   1 <1>   0.0400 
 28 H       -1.9790     0.2650    -0.6410 H     1 <1>   0.3700 
 29 H       -1.1460     2.6460     2.4270 H     1 <1>   0.3700 
 30 H       -3.5660     2.8340     2.9180 H     1 <1>   0.0800 
 31 H       -4.1260     0.4980    -1.8700 H     1 <1>   0.0800 
 32 H       -5.5840     0.9580    -1.0520 H     1 <1>   0.0800 
 33 H       -3.9320    -1.2830    -0.1220 H     1 <1>   0.4500 
 34 H       -2.0360     3.7960    -0.3760 H     1 <1>   0.1500 
 35 H       -3.8700     5.1420     3.2330 H     1 <1>   0.1500 
 36 H       -6.2490    -1.5410    -1.9180 H     1 <1>   0.0800 
 37 H       -6.7530    -0.6020     0.3600 H     1 <1>   0.0800 
 38 H       -5.4360    -0.2700     1.4520 H     1 <1>   0.0800 
 39 H       -3.5410     7.4600     2.5360 H     1 <1>   0.1500 
 40 H       -7.1440     4.6710     3.1100 H     1 <1>   0.0800 
 41 H       -7.7830     3.0910     2.6580 H     1 <1>   0.0800 
 42 H       -7.5560     4.3400     1.4290 H     1 <1>   0.0800 
 43 H       -4.4360    -3.6550    -0.7270 H     1 <1>   0.0800 
 44 H       -5.7930    -3.9310    -1.7700 H     1 <1>   0.0800 
 45 H       -3.2840    -2.0550    -2.3670 H     1 <1>   0.0800 
 46 H       -4.3040    -0.9280    -3.2550 H     1 <1>   0.0800 
 47 H       -4.5480    -2.6250    -3.4170 H     1 <1>   0.0800 
 48 H       -6.6250    -2.3320     2.0720 H     1 <1>   0.0800 
 49 H       -4.9590    -2.6420     1.6970 H     1 <1>   0.0800 
 50 H       -2.4560     7.9610     0.3810 H     1 <1>   0.1500 
 51 H       -6.3330    -4.3530     0.6240 H     1 <1>   0.0800 
 52 H       -7.3540    -3.1410    -0.0970 H     1 <1>   0.0800 
 53 H       -0.3700     5.8760    -2.8690 H     1 <1>   0.0800 
 54 H       -1.5320     4.6180    -2.4660 H     1 <1>   0.0800 
 55 H       -0.1050     4.8760    -1.4440 H     1 <1>   0.0800 
@<TRIPOS>BOND
  1   1   2  2   
  2   2   3  am  
  3   2   4  am  
  4   3   5  1   
  5   3  28  1   
  6   4   6  1   
  7   4  29  1   
  8   5   7  2   
  9   5   8  1   
 10   6   7  1   
 11   6   9  1   
 12   6  30  1   
 13   7  10  1   
 14   8  11  1   
 15   8  31  1   
 16   8  32  1   
 17   9  12  ar  
 18   9  13  ar  
 19  10  14  2   
 20  10  15  1   
 21  11  16  1   
 22  11  17  1   
 23  11  33  1   
 24  12  18  ar  
 25  12  34  1   
 26  13  19  ar  
 27  13  35  1   
 28  15  20  1   
 29  16  21  1   
 30  16  22  1   
 31  16  36  1   
 32  17  23  1   
 33  17  37  1   
 34  17  38  1   
 35  18  24  1   
 36  18  25  ar  
 37  19  25  ar  
 38  19  39  1   
 39  20  40  1   
 40  20  41  1   
 41  20  42  1   
 42  21  26  1   
 43  21  43  1   
 44  21  44  1   
 45  22  45  1   
 46  22  46  1   
 47  22  47  1   
 48  23  26  1   
 49  23  48  1   
 50  23  49  1   
 51  24  27  1   
 52  25  50  1   
 53  26  51  1   
 54  26  52  1   
 55  27  53  1   
 56  27  54  1   
 57  27  55  1   
@<TRIPOS>SUBSTRUCTURE
  1 ****   7 GROUP 4 **** **** 0

# MOE 2024.06 (io_trps.svl 2023.06)
