@<TRIPOS>MOLECULE
5-Morpholin-4-ylmethyl-furan-2-carbaldehyde
27 28 1 0 0 
SMALL
USER_CHARGES


@<TRIPOS>ATOM
  1 O        0.4850     0.3840     0.0990 O.2   1 <1>  -0.5700 
  2 C        1.4940    -0.0860    -0.3690 C.2   1 <1>   0.5950 
  3 C        2.8160     0.1380     0.1330 C.2   1 <1>   0.0550 
  4 O        3.8660    -0.4180    -0.4630 O.3   1 <1>  -0.2800 
  5 C        3.2590     0.8720     1.1920 C.2   1 <1>  -0.1500 
  6 C        4.9590    -0.0620     0.1750 C.2   1 <1>  -0.0400 
  7 C        4.6460     0.7390     1.2180 C.2   1 <1>  -0.1500 
  8 C        6.3030    -0.5780    -0.3200 C.3   1 <1>   0.2900 
  9 N        7.4250     0.2240     0.2000 N.3   1 <1>  -0.8100 
 10 C        7.4270     1.6120    -0.3310 C.3   1 <1>   0.1100 
 11 C        8.7230    -0.4350    -0.0080 C.3   1 <1>   0.1100 
 12 C        8.8380     2.1920    -0.5720 C.3   1 <1>   0.1200 
 13 C        9.8800     0.4020     0.5870 C.3   1 <1>   0.1200 
 14 O        9.7230     1.7910     0.4300 O.3   1 <1>  -0.5600 
 15 H        1.4020    -0.7230    -1.2300 H     1 <1>   0.0600 
 16 H        2.6670     1.4470     1.8820 H     1 <1>   0.1500 
 17 H        5.3180     1.1850     1.9310 H     1 <1>   0.1500 
 18 H        6.3170    -0.5640    -1.3960 H     1 <1>   0.0800 
 19 H        6.4080    -1.5990     0.0030 H     1 <1>   0.0800 
 20 H        6.9170     2.2440     0.3730 H     1 <1>   0.0800 
 21 H        6.8810     1.6620    -1.2580 H     1 <1>   0.0800 
 22 H        8.8960    -0.5770    -1.0610 H     1 <1>   0.0800 
 23 H        8.7200    -1.4040     0.4610 H     1 <1>   0.0800 
 24 H        8.8030     3.2660    -0.5760 H     1 <1>   0.0800 
 25 H        9.2280     1.8590    -1.5180 H     1 <1>   0.0800 
 26 H       10.8110     0.1200     0.1300 H     1 <1>   0.0800 
 27 H        9.9510     0.2130     1.6430 H     1 <1>   0.0800 
@<TRIPOS>BOND
  1   1   2  2   
  2   2   3  1   
  3   2  15  1   
  4   3   4  1   
  5   3   5  2   
  6   4   6  1   
  7   5   7  1   
  8   5  16  1   
  9   6   7  2   
 10   6   8  1   
 11   7  17  1   
 12   8   9  1   
 13   8  18  1   
 14   8  19  1   
 15   9  10  1   
 16   9  11  1   
 17  10  12  1   
 18  10  20  1   
 19  10  21  1   
 20  11  13  1   
 21  11  22  1   
 22  11  23  1   
 23  12  14  1   
 24  12  24  1   
 25  12  25  1   
 26  13  14  1   
 27  13  26  1   
 28  13  27  1   
@<TRIPOS>SUBSTRUCTURE
  1 ****   6 GROUP 4 **** **** 0

# MOE 2024.06 (io_trps.svl 2023.06)
