@<TRIPOS>MOLECULE
6-Phenyl-3-(2-piperidin-1-yl-ethylsulfanyl)-[1,2,4]triazine
42 44 1 0 0 
SMALL
USER_CHARGES


@<TRIPOS>ATOM
  1 S       -0.2030     0.0960     0.8670 S.3   1 <1>  -0.3320 
  2 C       -1.6840    -0.8670     0.5980 C.ar  1 <1>   0.7220 
  3 C        1.1600    -0.9680     0.2280 C.3   1 <1>   0.0700 
  4 N       -2.8260    -0.2890     0.9730 N.ar  1 <1>  -0.3100 
  5 N       -1.5090    -2.0540     0.0550 N.ar  1 <1>  -0.6200 
  6 C        2.4670    -0.1970     0.4290 C.3   1 <1>   0.3430 
  7 N       -3.9490    -0.9350     0.8060 N.ar  1 <1>  -0.3100 
  8 C       -2.6610    -2.6830    -0.1050 C.ar  1 <1>   0.1600 
  9 N        3.6540    -0.9340    -0.1110 N.4   1 <1>  -0.9590 
 10 C       -3.8900    -2.1550     0.2630 C.ar  1 <1>   0.3100 
 11 C        3.9400    -2.1900     0.6500 C.3   1 <1>   0.3430 
 12 C        4.8460    -0.0360    -0.1370 C.3   1 <1>   0.3430 
 13 C       -5.1180    -2.8970     0.0630 C.ar  1 <1>   0.0000 
 14 C        5.0870    -2.9490    -0.0210 C.3   1 <1>  -0.1600 
 15 C        6.0130    -0.7470    -0.8250 C.3   1 <1>  -0.1600 
 16 C       -6.2400    -2.2890    -0.5000 C.ar  1 <1>  -0.1500 
 17 C       -5.2240    -4.2410     0.4210 C.ar  1 <1>  -0.1500 
 18 C        6.3460    -2.0820    -0.1470 C.3   1 <1>  -0.1600 
 19 C       -7.4110    -2.9930    -0.7100 C.ar  1 <1>  -0.1500 
 20 C       -6.3930    -4.9500     0.2130 C.ar  1 <1>  -0.1500 
 21 C       -7.4890    -4.3280    -0.3560 C.ar  1 <1>  -0.1500 
 22 H        0.9540    -1.1490    -0.8120 H     1 <1>   0.0800 
 23 H        1.1300    -1.8820     0.7930 H     1 <1>   0.0800 
 24 H        2.6040    -0.0040     1.4810 H     1 <1>   0.0800 
 25 H        2.3770     0.7530    -0.0730 H     1 <1>   0.0800 
 26 H       -2.6340    -3.6610    -0.5530 H     1 <1>   0.1500 
 27 H        3.4650    -1.2010    -1.0870 H     1 <1>   0.4500 
 28 H        3.0660    -2.8210     0.6760 H     1 <1>   0.0800 
 29 H        4.2150    -1.9480     1.6640 H     1 <1>   0.0800 
 30 H        5.1290     0.2250     0.8710 H     1 <1>   0.0800 
 31 H        4.6160     0.8720    -0.6710 H     1 <1>   0.0800 
 32 H        4.7730    -3.2860    -0.9940 H     1 <1>   0.0800 
 33 H        5.3170    -3.8250     0.5620 H     1 <1>   0.0800 
 34 H        6.8800    -0.1090    -0.7960 H     1 <1>   0.0800 
 35 H        5.7720    -0.9110    -1.8620 H     1 <1>   0.0800 
 36 H       -6.1930    -1.2490    -0.7760 H     1 <1>   0.1500 
 37 H       -4.3880    -4.7440     0.8770 H     1 <1>   0.1500 
 38 H        7.0960    -2.6050    -0.7160 H     1 <1>   0.0800 
 39 H        6.7520    -1.8940     0.8340 H     1 <1>   0.0800 
 40 H       -8.2630    -2.5020    -1.1480 H     1 <1>   0.1500 
 41 H       -6.4540    -5.9880     0.4950 H     1 <1>   0.1500 
 42 H       -8.4000    -4.8770    -0.5190 H     1 <1>   0.1500 
@<TRIPOS>BOND
  1   1   2  1   
  2   1   3  1   
  3   2   4  ar  
  4   2   5  ar  
  5   3   6  1   
  6   3  22  1   
  7   3  23  1   
  8   4   7  ar  
  9   5   8  ar  
 10   6   9  1   
 11   6  24  1   
 12   6  25  1   
 13   7  10  ar  
 14   8  10  ar  
 15   8  26  1   
 16   9  11  1   
 17   9  12  1   
 18   9  27  1   
 19  10  13  1   
 20  11  14  1   
 21  11  28  1   
 22  11  29  1   
 23  12  15  1   
 24  12  30  1   
 25  12  31  1   
 26  13  16  ar  
 27  13  17  ar  
 28  14  18  1   
 29  14  32  1   
 30  14  33  1   
 31  15  18  1   
 32  15  34  1   
 33  15  35  1   
 34  16  19  ar  
 35  16  36  1   
 36  17  20  ar  
 37  17  37  1   
 38  18  38  1   
 39  18  39  1   
 40  19  21  ar  
 41  19  40  1   
 42  20  21  ar  
 43  20  41  1   
 44  21  42  1   
@<TRIPOS>SUBSTRUCTURE
  1 ****   5 GROUP 4 **** **** 0

# MOE 2024.06 (io_trps.svl 2023.06)
