@<TRIPOS>MOLECULE
7-[3-(4,6-Dimethyl-pyrimidin-2-ylsulfanyl)-propyl]-3-methyl-8-piperidin-1-yl-3,7
58 61 1 0 0 
SMALL
USER_CHARGES


@<TRIPOS>ATOM
  1 S       -0.8650     0.3470     1.2040 S.3   1 <1>  -0.3370 
  2 C       -0.3320     1.8400     0.3830 C.ar  1 <1>   0.7180 
  3 C       -1.6790    -0.6410    -0.1180 C.3   1 <1>   0.0630 
  4 N        0.2810     2.7080     1.1660 N.ar  1 <1>  -0.6240 
  5 N       -0.6020     1.9140    -0.9120 N.ar  1 <1>  -0.6240 
  6 C       -2.0520    -1.9900     0.4940 C.3   1 <1>  -0.1660 
  7 C        0.6730     3.8040     0.5630 C.ar  1 <1>   0.1600 
  8 C       -0.1980     3.0230    -1.4870 C.ar  1 <1>   0.1600 
  9 C       -2.5990    -2.9410    -0.5690 C.3   1 <1>   0.3490 
 10 C        0.4530     4.0100    -0.7810 C.ar  1 <1>  -0.1560 
 11 C        1.3810     4.8390     1.4110 C.3   1 <1>  -0.1030 
 12 C       -0.4790     3.1740    -2.9670 C.3   1 <1>  -0.1030 
 13 N       -2.7750    -4.2910     0.0250 N.pl3 1 <1>  -0.7670 
 14 C       -2.0460    -5.4140    -0.0980 C.cat 1 <1>   1.0690 
 15 C       -3.9180    -4.6160     0.7840 C.2   1 <1>   0.2710 
 16 N       -2.6720    -6.4080     0.5370 N.pl3 1 <1>  -0.7030 
 17 N       -0.8690    -5.6040    -0.7390 N.pl3 1 <1>  -0.5960 
 18 C       -5.0760    -3.9050     1.2450 C.2   1 <1>   0.7000 
 19 C       -3.8150    -5.9280     1.0910 C.2   1 <1>   0.4210 
 20 C       -0.4310    -6.9460    -1.2310 C.3   1 <1>   0.1610 
 21 C        0.2080    -4.5790    -0.8840 C.3   1 <1>   0.1610 
 22 O       -5.3040    -2.7400     0.9860 O.2   1 <1>  -0.5740 
 23 N       -5.9750    -4.5970     2.0040 N.am  1 <1>  -0.4940 
 24 N       -4.7470    -6.6230     1.8480 N.am  1 <1>  -0.4410 
 25 C        0.7740    -7.4270    -0.4170 C.3   1 <1>  -0.1660 
 26 C        1.4420    -5.0130    -0.0870 C.3   1 <1>  -0.1660 
 27 C       -5.8460    -5.9190     2.3180 C.2   1 <1>   0.6870 
 28 C       -4.5690    -8.0710     2.1590 C.3   1 <1>   0.0530 
 29 C        1.9240    -6.4140    -0.4870 C.3   1 <1>  -0.1660 
 30 O       -6.7000    -6.4350     2.9990 O.2   1 <1>  -0.5740 
 31 H       -0.9660    -0.7400    -0.9180 H     1 <1>   0.0730 
 32 H       -2.5400    -0.0860    -0.4490 H     1 <1>   0.0730 
 33 H       -2.7940    -1.8230     1.2550 H     1 <1>   0.0730 
 34 H       -1.1790    -2.4110     0.9570 H     1 <1>   0.0730 
 35 H       -1.9330    -2.9910    -1.4140 H     1 <1>   0.0730 
 36 H       -3.5460    -2.5740    -0.9310 H     1 <1>   0.0730 
 37 H        0.7780     4.9120    -1.2620 H     1 <1>   0.1440 
 38 H        0.7320     5.1560     2.2070 H     1 <1>   0.0730 
 39 H        1.6600     5.6950     0.8260 H     1 <1>   0.0730 
 40 H        2.2670     4.4060     1.8400 H     1 <1>   0.0730 
 41 H       -1.5390     3.1310    -3.1390 H     1 <1>   0.0730 
 42 H       -0.0070     2.3740    -3.5070 H     1 <1>   0.0730 
 43 H       -0.1050     4.1110    -3.3370 H     1 <1>   0.0730 
 44 H       -2.2950    -7.3460     0.6310 H     1 <1>   0.4450 
 45 H       -0.1470    -6.8610    -2.2680 H     1 <1>   0.0730 
 46 H       -1.2280    -7.6670    -1.1740 H     1 <1>   0.0730 
 47 H       -0.1000    -3.6210    -0.5190 H     1 <1>   0.0730 
 48 H        0.4650    -4.4760    -1.9260 H     1 <1>   0.0730 
 49 H       -6.8010    -4.1130     2.3500 H     1 <1>   0.3650 
 50 H        1.1120    -8.3720    -0.8060 H     1 <1>   0.0730 
 51 H        0.4850    -7.5800     0.6080 H     1 <1>   0.0730 
 52 H        1.2100    -4.9970     0.9640 H     1 <1>   0.0730 
 53 H        2.2370    -4.3050    -0.2500 H     1 <1>   0.0730 
 54 H       -3.7200    -8.2040     2.8080 H     1 <1>   0.0730 
 55 H       -4.4180    -8.6280     1.2510 H     1 <1>   0.0730 
 56 H       -5.4390    -8.4670     2.6550 H     1 <1>   0.0730 
 57 H        2.3120    -6.3830    -1.4920 H     1 <1>   0.0730 
 58 H        2.7250    -6.7250     0.1620 H     1 <1>   0.0730 
@<TRIPOS>BOND
  1   1   2  1   
  2   1   3  1   
  3   2   4  ar  
  4   2   5  ar  
  5   3   6  1   
  6   3  31  1   
  7   3  32  1   
  8   4   7  ar  
  9   5   8  ar  
 10   6   9  1   
 11   6  33  1   
 12   6  34  1   
 13   7  10  ar  
 14   7  11  1   
 15   8  10  ar  
 16   8  12  1   
 17   9  13  1   
 18   9  35  1   
 19   9  36  1   
 20  10  37  1   
 21  11  38  1   
 22  11  39  1   
 23  11  40  1   
 24  12  41  1   
 25  12  42  1   
 26  12  43  1   
 27  13  14  ar  
 28  13  15  1   
 29  14  16  ar  
 30  14  17  ar  
 31  15  18  1   
 32  15  19  2   
 33  16  19  1   
 34  16  44  1   
 35  17  20  1   
 36  17  21  1   
 37  18  22  2   
 38  18  23  am  
 39  19  24  1   
 40  20  25  1   
 41  20  45  1   
 42  20  46  1   
 43  21  26  1   
 44  21  47  1   
 45  21  48  1   
 46  23  27  am  
 47  23  49  1   
 48  24  27  am  
 49  24  28  1   
 50  25  29  1   
 51  25  50  1   
 52  25  51  1   
 53  26  29  1   
 54  26  52  1   
 55  26  53  1   
 56  27  30  2   
 57  28  54  1   
 58  28  55  1   
 59  28  56  1   
 60  29  57  1   
 61  29  58  1   
@<TRIPOS>SUBSTRUCTURE
  1 ****   6 GROUP 4 **** **** 0

# MOE 2024.06 (io_trps.svl 2023.06)
