@<TRIPOS>MOLECULE
2-[4-(2-Methoxy-phenyl)-piperazin-1-yl]-acetamide
37 38 1 0 0 
SMALL
USER_CHARGES


@<TRIPOS>ATOM
  1 O        0.8500     0.2970    -0.8100 O.2   1 <1>  -0.5700 
  2 C        1.7350    -0.0450    -0.0680 C.2   1 <1>   0.5690 
  3 N        1.6880    -1.2440     0.5440 N.am  1 <1>  -0.8000 
  4 C        2.9260     0.8850     0.1930 C.3   1 <1>   0.1710 
  5 N        4.2060     0.1790     0.4960 N.3   1 <1>  -0.8100 
  6 C        5.2150     1.1350     1.0130 C.3   1 <1>   0.1100 
  7 C        4.7370    -0.4930    -0.7180 C.3   1 <1>   0.1100 
  8 C        6.5670     0.4580     1.3110 C.3   1 <1>   0.2090 
  9 C        6.0760    -1.2080    -0.4520 C.3   1 <1>   0.2090 
 10 N        7.0770    -0.2540     0.1040 N.pl3 1 <1>  -0.8380 
 11 C        8.4540    -0.5440     0.0810 C.ar  1 <1>   0.1000 
 12 C        9.4290     0.4660    -0.0180 C.ar  1 <1>   0.0820 
 13 C        8.8970    -1.8600     0.1860 C.ar  1 <1>  -0.1500 
 14 O        9.1070     1.7830    -0.1370 O.3   1 <1>  -0.3630 
 15 C       10.7770     0.1550     0.0080 C.ar  1 <1>  -0.1500 
 16 C       10.2470    -2.1690     0.1990 C.ar  1 <1>  -0.1500 
 17 C        8.5020     2.1590    -1.3540 C.3   1 <1>   0.0400 
 18 C       11.1900    -1.1620     0.1130 C.ar  1 <1>  -0.1500 
 19 H        0.9110    -1.8850     0.3890 H     1 <1>   0.3700 
 20 H        2.4710    -1.5530     1.1240 H     1 <1>   0.3700 
 21 H        2.6600     1.5050     1.0290 H     1 <1>   0.0800 
 22 H        3.0560     1.5250    -0.6620 H     1 <1>   0.0800 
 23 H        4.8500     1.5840     1.9200 H     1 <1>   0.0800 
 24 H        5.3800     1.9190     0.2940 H     1 <1>   0.0800 
 25 H        4.8880     0.2310    -1.5000 H     1 <1>   0.0800 
 26 H        4.0250    -1.2190    -1.0710 H     1 <1>   0.0800 
 27 H        6.4460    -0.2450     2.1150 H     1 <1>   0.0800 
 28 H        7.2790     1.2020     1.6220 H     1 <1>   0.0800 
 29 H        6.4510    -1.6230    -1.3720 H     1 <1>   0.0800 
 30 H        5.9140    -2.0100     0.2460 H     1 <1>   0.0800 
 31 H        8.1840    -2.6560     0.2710 H     1 <1>   0.1500 
 32 H       11.4990     0.9470    -0.0560 H     1 <1>   0.1500 
 33 H       10.5620    -3.1940     0.2810 H     1 <1>   0.1500 
 34 H        8.4270     3.2300    -1.3740 H     1 <1>   0.0800 
 35 H        7.5230     1.7220    -1.4130 H     1 <1>   0.0800 
 36 H        9.1150     1.8140    -2.1670 H     1 <1>   0.0800 
 37 H       12.2400    -1.3980     0.1290 H     1 <1>   0.1500 
@<TRIPOS>BOND
  1   1   2  2   
  2   2   3  am  
  3   2   4  1   
  4   3  19  1   
  5   3  20  1   
  6   4   5  1   
  7   4  21  1   
  8   4  22  1   
  9   5   6  1   
 10   5   7  1   
 11   6   8  1   
 12   6  23  1   
 13   6  24  1   
 14   7   9  1   
 15   7  25  1   
 16   7  26  1   
 17   8  10  1   
 18   8  27  1   
 19   8  28  1   
 20   9  10  1   
 21   9  29  1   
 22   9  30  1   
 23  10  11  1   
 24  11  12  ar  
 25  11  13  ar  
 26  12  14  1   
 27  12  15  ar  
 28  13  16  ar  
 29  13  31  1   
 30  14  17  1   
 31  15  18  ar  
 32  15  32  1   
 33  16  18  ar  
 34  16  33  1   
 35  17  34  1   
 36  17  35  1   
 37  17  36  1   
 38  18  37  1   
@<TRIPOS>SUBSTRUCTURE
  1 ****  10 GROUP 4 **** **** 0

# MOE 2024.06 (io_trps.svl 2023.06)
