@<TRIPOS>MOLECULE
2-(2-Isopropyl-phenoxy)-N-(5-methoxymethyl-[1,3,4]thiadiazol-2-yl)-acetamide
41 42 1 0 0 
SMALL
USER_CHARGES


@<TRIPOS>ATOM
  1 S       -0.6400     0.0920    -0.3950 S.3   1 <1>  -0.0800 
  2 C        0.4000     1.4670    -0.1820 C.2   1 <1>   0.4420 
  3 C        0.0310    -0.5490     1.0640 C.2   1 <1>   0.1980 
  4 N        1.1360     1.3580     0.8620 N.2   1 <1>  -0.3380 
  5 N        0.4180     2.5120    -1.0800 N.am  1 <1>  -0.4940 
  6 N        0.9140     0.2130     1.5750 N.2   1 <1>  -0.3380 
  7 C       -0.4950    -1.8790     1.5730 C.3   1 <1>   0.3000 
  8 C       -0.4640     2.9930    -2.0020 C.2   1 <1>   0.5690 
  9 O       -0.3850    -2.8570     0.5780 O.3   1 <1>  -0.5600 
 10 O       -0.1030     3.8760    -2.7390 O.2   1 <1>  -0.5700 
 11 C       -1.8930     2.4790    -2.1380 C.3   1 <1>   0.1810 
 12 C       -0.8280    -4.1170     0.9660 C.3   1 <1>   0.0400 
 13 O       -2.5800     2.5850    -0.9020 O.3   1 <1>  -0.3620 
 14 C       -3.8170     2.0570    -0.7060 C.ar  1 <1>   0.0820 
 15 C       -4.4060     2.1840     0.5570 C.ar  1 <1>  -0.1440 
 16 C       -4.5010     1.3960    -1.7260 C.ar  1 <1>  -0.1500 
 17 C       -5.6630     1.6310     0.7640 C.ar  1 <1>  -0.1500 
 18 C       -3.7500     2.9080     1.7420 C.3   1 <1>   0.0630 
 19 C       -5.7510     0.8540    -1.4970 C.ar  1 <1>  -0.1500 
 20 C       -6.3320     0.9700    -0.2500 C.ar  1 <1>  -0.1500 
 21 C       -3.5360     4.3990     1.4570 C.3   1 <1>  -0.2400 
 22 C       -2.4490     2.2360     2.1930 C.3   1 <1>  -0.2400 
 23 H        1.2480     3.0960    -1.0040 H     1 <1>   0.3700 
 24 H       -1.5300    -1.7790     1.8450 H     1 <1>   0.0800 
 25 H        0.0800    -2.1910     2.4270 H     1 <1>   0.0800 
 26 H       -1.8800     1.4530    -2.4500 H     1 <1>   0.0800 
 27 H       -2.4230     3.0710    -2.8620 H     1 <1>   0.0800 
 28 H       -0.7000    -4.7870     0.1330 H     1 <1>   0.0800 
 29 H       -1.8700    -4.0650     1.2310 H     1 <1>   0.0800 
 30 H       -0.2390    -4.4620     1.7990 H     1 <1>   0.0800 
 31 H       -4.0850     1.2910    -2.7080 H     1 <1>   0.1500 
 32 H       -6.1410     1.7110     1.7240 H     1 <1>   0.1500 
 33 H       -4.4250     2.8530     2.5790 H     1 <1>   0.0800 
 34 H       -6.2730     0.3440    -2.2880 H     1 <1>   0.1500 
 35 H       -7.3060     0.5490    -0.0680 H     1 <1>   0.1500 
 36 H       -2.8030     4.5450     0.6850 H     1 <1>   0.0800 
 37 H       -3.1970     4.9020     2.3450 H     1 <1>   0.0800 
 38 H       -4.4600     4.8470     1.1390 H     1 <1>   0.0800 
 39 H       -1.6730     2.3840     1.4690 H     1 <1>   0.0800 
 40 H       -2.6050     1.1810     2.3240 H     1 <1>   0.0800 
 41 H       -2.1190     2.6550     3.1260 H     1 <1>   0.0800 
@<TRIPOS>BOND
  1   1   2  1   
  2   1   3  1   
  3   2   4  2   
  4   2   5  1   
  5   3   6  2   
  6   3   7  1   
  7   4   6  1   
  8   5   8  am  
  9   5  23  1   
 10   7   9  1   
 11   7  24  1   
 12   7  25  1   
 13   8  10  2   
 14   8  11  1   
 15   9  12  1   
 16  11  13  1   
 17  11  26  1   
 18  11  27  1   
 19  12  28  1   
 20  12  29  1   
 21  12  30  1   
 22  13  14  1   
 23  14  15  ar  
 24  14  16  ar  
 25  15  17  ar  
 26  15  18  1   
 27  16  19  ar  
 28  16  31  1   
 29  17  20  ar  
 30  17  32  1   
 31  18  21  1   
 32  18  22  1   
 33  18  33  1   
 34  19  20  ar  
 35  19  34  1   
 36  20  35  1   
 37  21  36  1   
 38  21  37  1   
 39  21  38  1   
 40  22  39  1   
 41  22  40  1   
 42  22  41  1   
@<TRIPOS>SUBSTRUCTURE
  1 ****  13 GROUP 4 **** **** 0

# MOE 2024.06 (io_trps.svl 2023.06)
