@<TRIPOS>MOLECULE
N-[5-(2-Ethoxy-ethyl)-[1,3,4]thiadiazol-2-yl]-2-(4-methoxy-phenyl)-acetamide
41 42 1 0 0 
SMALL
USER_CHARGES


@<TRIPOS>ATOM
  1 S       -2.4690     1.1280     0.5000 S.3   1 <1>  -0.0800 
  2 C       -2.2470    -0.1170    -0.6840 C.2   1 <1>   0.4420 
  3 C       -0.9140     1.7360     0.0490 C.2   1 <1>   0.1980 
  4 N       -1.1220    -0.0120    -1.2920 N.2   1 <1>  -0.3380 
  5 N       -3.2710    -1.0280    -0.8170 N.am  1 <1>  -0.4940 
  6 N       -0.3670     1.0470    -0.8690 N.2   1 <1>  -0.3380 
  7 C       -0.4060     2.9680     0.7710 C.3   1 <1>   0.0200 
  8 C       -3.3940    -2.1040    -1.6510 C.2   1 <1>   0.5690 
  9 C        0.9740     3.3820     0.2650 C.3   1 <1>   0.1200 
 10 O       -2.5570    -2.4290    -2.4520 O.2   1 <1>  -0.5700 
 11 C       -4.6600    -2.9400    -1.5630 C.3   1 <1>   0.0450 
 12 O        1.3700     4.5130     0.9700 O.3   1 <1>  -0.5600 
 13 C       -5.6580    -2.3900    -0.5460 C.ar  1 <1>  -0.1440 
 14 C        2.6180     4.9940     0.6010 C.3   1 <1>   0.1200 
 15 C       -6.6190    -1.4690    -0.9360 C.ar  1 <1>  -0.1500 
 16 C       -5.5920    -2.7860     0.7810 C.ar  1 <1>  -0.1500 
 17 C        2.9070     6.2220     1.4550 C.3   1 <1>  -0.2400 
 18 C       -7.5030    -0.9430    -0.0100 C.ar  1 <1>  -0.1500 
 19 C       -6.4740    -2.2610     1.7070 C.ar  1 <1>  -0.1500 
 20 C       -7.4320    -1.3370     1.3230 C.ar  1 <1>   0.0820 
 21 O       -8.2540    -0.8700     2.2940 O.3   1 <1>  -0.3620 
 22 C       -9.3150     0.0110     1.9980 C.3   1 <1>   0.0400 
 23 H       -4.0690    -0.8820    -0.1980 H     1 <1>   0.3700 
 24 H       -0.3470     2.7560     1.8230 H     1 <1>   0.0800 
 25 H       -1.0970     3.7750     0.6130 H     1 <1>   0.0800 
 26 H        0.9340     3.6210    -0.7850 H     1 <1>   0.0800 
 27 H        1.6890     2.5950     0.4340 H     1 <1>   0.0800 
 28 H       -4.3850    -3.9450    -1.2990 H     1 <1>   0.0800 
 29 H       -5.1110    -2.9750    -2.5370 H     1 <1>   0.0800 
 30 H        2.5970     5.2540    -0.4440 H     1 <1>   0.0800 
 31 H        3.3540     4.2270     0.7770 H     1 <1>   0.0800 
 32 H       -6.6850    -1.1540    -1.9640 H     1 <1>   0.1500 
 33 H       -4.8570    -3.5050     1.1030 H     1 <1>   0.1500 
 34 H        2.1590     6.9750     1.2820 H     1 <1>   0.0800 
 35 H        3.8690     6.6270     1.1990 H     1 <1>   0.0800 
 36 H        2.9120     5.9540     2.4960 H     1 <1>   0.0800 
 37 H       -8.2360    -0.2330    -0.3420 H     1 <1>   0.1500 
 38 H       -6.4280    -2.5650     2.7380 H     1 <1>   0.1500 
 39 H       -9.8430     0.2160     2.9120 H     1 <1>   0.0800 
 40 H       -9.9760    -0.4630     1.2930 H     1 <1>   0.0800 
 41 H       -8.9110     0.9230     1.5970 H     1 <1>   0.0800 
@<TRIPOS>BOND
  1   1   2  1   
  2   1   3  1   
  3   2   4  2   
  4   2   5  1   
  5   3   6  2   
  6   3   7  1   
  7   4   6  1   
  8   5   8  am  
  9   5  23  1   
 10   7   9  1   
 11   7  24  1   
 12   7  25  1   
 13   8  10  2   
 14   8  11  1   
 15   9  12  1   
 16   9  26  1   
 17   9  27  1   
 18  11  13  1   
 19  11  28  1   
 20  11  29  1   
 21  12  14  1   
 22  13  15  ar  
 23  13  16  ar  
 24  14  17  1   
 25  14  30  1   
 26  14  31  1   
 27  15  18  ar  
 28  15  32  1   
 29  16  19  ar  
 30  16  33  1   
 31  17  34  1   
 32  17  35  1   
 33  17  36  1   
 34  18  20  ar  
 35  18  37  1   
 36  19  20  ar  
 37  19  38  1   
 38  20  21  1   
 39  21  22  1   
 40  22  39  1   
 41  22  40  1   
 42  22  41  1   
@<TRIPOS>SUBSTRUCTURE
  1 ****   1 GROUP 4 **** **** 0

# MOE 2024.06 (io_trps.svl 2023.06)
