@<TRIPOS>MOLECULE
Ethyl-(3-p-tolyl-[1,2,4]oxadiazol-5-ylmethyl)-amine
31 32 1 0 0 
SMALL
USER_CHARGES


@<TRIPOS>ATOM
  1 O       -0.3090    -0.4520     1.3110 O.3   1 <1>  -0.0190 
  2 N       -1.5660    -0.1460     1.2430 N.2   1 <1>  -0.4100 
  3 C       -0.2340    -1.6280     0.7450 C.2   1 <1>   0.2980 
  4 C       -2.1780    -1.1140     0.6550 C.2   1 <1>   0.4620 
  5 N       -1.3370    -2.1000     0.3250 N.2   1 <1>  -0.5650 
  6 C        1.1280    -2.3100     0.6690 C.3   1 <1>   0.2900 
  7 C       -3.6040    -1.1700     0.3730 C.ar  1 <1>   0.0540 
  8 N        2.1380    -1.4850    -0.0190 N.3   1 <1>  -0.9000 
  9 C       -4.1780    -2.2460    -0.3070 C.ar  1 <1>  -0.1500 
 10 C       -4.4630    -0.1450     0.7730 C.ar  1 <1>  -0.1500 
 11 C        3.4640    -2.0770     0.0270 C.3   1 <1>   0.1100 
 12 C       -5.5340    -2.2970    -0.5710 C.ar  1 <1>  -0.1500 
 13 C       -5.8200    -0.1910     0.5110 C.ar  1 <1>  -0.1500 
 14 C        4.4220    -1.1340    -0.6860 C.3   1 <1>  -0.2400 
 15 C       -6.3660    -1.2700    -0.1620 C.ar  1 <1>  -0.1430 
 16 C       -7.8550    -1.3230    -0.4520 C.3   1 <1>  -0.0970 
 17 H        1.0170    -3.2430     0.1440 H     1 <1>   0.0800 
 18 H        1.4550    -2.5210     1.6710 H     1 <1>   0.0800 
 19 H        2.1680    -0.5590     0.4280 H     1 <1>   0.3600 
 20 H       -3.5510    -3.0560    -0.6360 H     1 <1>   0.1500 
 21 H       -4.0610     0.7040     1.2980 H     1 <1>   0.1500 
 22 H        3.4540    -3.0330    -0.4720 H     1 <1>   0.0800 
 23 H        3.7780    -2.2160     1.0490 H     1 <1>   0.0800 
 24 H       -5.9390    -3.1420    -1.1000 H     1 <1>   0.1500 
 25 H       -6.4510     0.6190     0.8350 H     1 <1>   0.1500 
 26 H        4.1080    -0.9920    -1.7060 H     1 <1>   0.0800 
 27 H        5.4100    -1.5560    -0.6900 H     1 <1>   0.0800 
 28 H        4.4570    -0.1830    -0.1870 H     1 <1>   0.0800 
 29 H       -8.1970    -2.3420    -0.4760 H     1 <1>   0.0800 
 30 H       -8.0560    -0.8660    -1.4040 H     1 <1>   0.0800 
 31 H       -8.4060    -0.7990     0.3080 H     1 <1>   0.0800 
@<TRIPOS>BOND
  1   1   2  1   
  2   1   3  1   
  3   2   4  2   
  4   3   5  2   
  5   3   6  1   
  6   4   5  1   
  7   4   7  1   
  8   6   8  1   
  9   6  17  1   
 10   6  18  1   
 11   7   9  ar  
 12   7  10  ar  
 13   8  11  1   
 14   8  19  1   
 15   9  12  ar  
 16   9  20  1   
 17  10  13  ar  
 18  10  21  1   
 19  11  14  1   
 20  11  22  1   
 21  11  23  1   
 22  12  15  ar  
 23  12  24  1   
 24  13  15  ar  
 25  13  25  1   
 26  14  26  1   
 27  14  27  1   
 28  14  28  1   
 29  15  16  1   
 30  16  29  1   
 31  16  30  1   
 32  16  31  1   
@<TRIPOS>SUBSTRUCTURE
  1 ****   4 GROUP 4 **** **** 0

# MOE 2024.06 (io_trps.svl 2023.06)
