@<TRIPOS>MOLECULE
1-Piperidin-1-ylmethyl-cyclohexylamine
40 41 1 0 0 
SMALL
USER_CHARGES


@<TRIPOS>ATOM
  1 N        0.9400    -0.1870    -0.4830 N.4   1 <1>  -0.9590 
  2 C        1.4700     1.2020    -0.7140 C.3   1 <1>   0.3430 
  3 C        1.9030    -1.1720    -1.0820 C.3   1 <1>   0.3430 
  4 C       -0.4420    -0.3870    -1.0830 C.3   1 <1>   0.3430 
  5 C        2.8000     1.3730     0.0220 C.3   1 <1>  -0.1600 
  6 C        3.2490    -1.0810    -0.3620 C.3   1 <1>  -0.1600 
  7 C       -1.7130    -0.0220    -0.2240 C.3   1 <1>   0.5030 
  8 C        3.8330     0.3350    -0.4320 C.3   1 <1>  -0.1600 
  9 N       -1.8280    -0.7990     1.0340 N.4   1 <1>  -0.8530 
 10 C       -1.7320     1.4690     0.1720 C.3   1 <1>  -0.1600 
 11 C       -2.9680    -0.3460    -1.0570 C.3   1 <1>  -0.1600 
 12 C       -3.0400     1.9150     0.8520 C.3   1 <1>  -0.1600 
 13 C       -4.2900     0.0760    -0.3890 C.3   1 <1>  -0.1600 
 14 C       -4.2620     1.5590    -0.0020 C.3   1 <1>  -0.1600 
 15 H        0.9750    -0.3570     0.5280 H     1 <1>   0.4500 
 16 H        0.7770     1.9450    -0.3580 H     1 <1>   0.0800 
 17 H        1.6260     1.3660    -1.7690 H     1 <1>   0.0800 
 18 H        2.0450    -0.9610    -2.1310 H     1 <1>   0.0800 
 19 H        1.5220    -2.1770    -0.9890 H     1 <1>   0.0800 
 20 H       -0.5440    -1.4210    -1.3670 H     1 <1>   0.0800 
 21 H       -0.4950     0.1780    -2.0000 H     1 <1>   0.0800 
 22 H        2.6430     1.2970     1.0840 H     1 <1>   0.0800 
 23 H        3.1860     2.3590    -0.1720 H     1 <1>   0.0800 
 24 H        3.9400    -1.7680    -0.8190 H     1 <1>   0.0800 
 25 H        3.1350    -1.3820     0.6650 H     1 <1>   0.0800 
 26 H        4.7160     0.4000     0.1840 H     1 <1>   0.0800 
 27 H        4.1320     0.5480    -1.4460 H     1 <1>   0.0800 
 28 H       -1.1340    -0.5480     1.7420 H     1 <1>   0.4500 
 29 H       -1.8420    -1.8140     0.8850 H     1 <1>   0.4500 
 30 H       -2.7440    -0.5570     1.4370 H     1 <1>   0.4500 
 31 H       -1.6090     2.0640    -0.7180 H     1 <1>   0.0800 
 32 H       -0.9100     1.7000     0.8260 H     1 <1>   0.0800 
 33 H       -3.0070    -1.3960    -1.2920 H     1 <1>   0.0800 
 34 H       -2.9030     0.1780    -1.9970 H     1 <1>   0.0800 
 35 H       -3.0200     2.9840     0.9960 H     1 <1>   0.0800 
 36 H       -3.1420     1.4740     1.8290 H     1 <1>   0.0800 
 37 H       -4.5000    -0.5240     0.4800 H     1 <1>   0.0800 
 38 H       -5.1030    -0.0840    -1.0800 H     1 <1>   0.0800 
 39 H       -4.2540     2.1590    -0.8990 H     1 <1>   0.0800 
 40 H       -5.1640     1.8100     0.5340 H     1 <1>   0.0800 
@<TRIPOS>BOND
  1   1   2  1   
  2   1   3  1   
  3   1   4  1   
  4   1  15  1   
  5   2   5  1   
  6   2  16  1   
  7   2  17  1   
  8   3   6  1   
  9   3  18  1   
 10   3  19  1   
 11   4   7  1   
 12   4  20  1   
 13   4  21  1   
 14   5   8  1   
 15   5  22  1   
 16   5  23  1   
 17   6   8  1   
 18   6  24  1   
 19   6  25  1   
 20   7   9  1   
 21   7  10  1   
 22   7  11  1   
 23   8  26  1   
 24   8  27  1   
 25   9  28  1   
 26   9  29  1   
 27   9  30  1   
 28  10  12  1   
 29  10  31  1   
 30  10  32  1   
 31  11  13  1   
 32  11  33  1   
 33  11  34  1   
 34  12  14  1   
 35  12  35  1   
 36  12  36  1   
 37  13  14  1   
 38  13  37  1   
 39  13  38  1   
 40  14  39  1   
 41  14  40  1   
@<TRIPOS>SUBSTRUCTURE
  1 ****   4 GROUP 4 **** **** 0

# MOE 2024.06 (io_trps.svl 2023.06)
