@<TRIPOS>MOLECULE
7-(3-Chloro-benzyl)-8-(4-ethyl-piperazin-1-ylmethyl)-1,3-dimethyl-3,7-dihydro-pu
59 62 1 0 0 
SMALL
USER_CHARGES


@<TRIPOS>ATOM
  1 CL       2.3070    -3.0230    -3.2800 Cl    1 <1>  -0.1770 
  2 C        2.0460    -3.3760    -1.5930 C.ar  1 <1>   0.1770 
  3 C        0.8710    -3.9950    -1.2100 C.ar  1 <1>  -0.1500 
  4 C        3.0190    -3.0440    -0.6710 C.ar  1 <1>  -0.1500 
  5 C        0.6670    -4.3080     0.1280 C.ar  1 <1>  -0.1440 
  6 C        2.8100    -3.3400     0.6650 C.ar  1 <1>  -0.1500 
  7 C        1.6400    -3.9680     1.0610 C.ar  1 <1>  -0.1500 
  8 C       -0.6090    -5.0100     0.5660 C.3   1 <1>   0.4980 
  9 N       -0.6100    -6.4690     0.2100 N.pl3 1 <1>  -0.7640 
 10 C       -1.7880    -7.2180     0.3420 C.2   1 <1>   0.2770 
 11 C        0.3230    -7.3010    -0.2630 C.cat 1 <1>   0.6560 
 12 C       -3.1170    -6.9320     0.8020 C.2   1 <1>   0.7030 
 13 C       -1.5080    -8.4740    -0.0750 C.2   1 <1>   0.4260 
 14 N       -0.2050    -8.5090    -0.4450 N.pl3 1 <1>  -0.7000 
 15 C        1.8100    -7.0390    -0.5950 C.3   1 <1>   0.2540 
 16 O       -3.4050    -5.8220     1.2170 O.2   1 <1>  -0.5700 
 17 N       -4.0600    -7.9500     0.7680 N.am  1 <1>  -0.4200 
 18 N       -2.4310    -9.5030    -0.0910 N.am  1 <1>  -0.4360 
 19 N        2.6680    -8.2700    -0.6180 N.3   1 <1>  -0.8100 
 20 C       -3.7240    -9.2270     0.3320 C.2   1 <1>   0.6900 
 21 C       -5.4600    -7.6950     1.2320 C.3   1 <1>   0.0600 
 22 C       -2.0770   -10.8630    -0.5950 C.3   1 <1>   0.0600 
 23 C        3.9060    -8.0060    -1.4090 C.3   1 <1>   0.1100 
 24 C        3.0430    -8.7000     0.7590 C.3   1 <1>   0.1100 
 25 O       -4.5630   -10.1030     0.3210 O.2   1 <1>  -0.5700 
 26 C        4.9540    -9.1470    -1.3380 C.3   1 <1>   0.3430 
 27 C        3.9710    -9.9440     0.7800 C.3   1 <1>   0.3430 
 28 N        4.4250   -10.3380    -0.5970 N.4   1 <1>  -0.9590 
 29 C        5.3900   -11.4680    -0.6080 C.3   1 <1>   0.3430 
 30 C        4.6890   -12.7520    -0.1810 C.3   1 <1>  -0.2400 
 31 H        0.1350    -4.2220    -1.9610 H     1 <1>   0.1500 
 32 H        3.9210    -2.5540    -0.9960 H     1 <1>   0.1500 
 33 H        3.5570    -3.0740     1.3960 H     1 <1>   0.1500 
 34 H        1.4970    -4.1800     2.1090 H     1 <1>   0.1500 
 35 H       -1.4460    -4.5270     0.0880 H     1 <1>   0.0800 
 36 H       -0.7410    -4.9030     1.6300 H     1 <1>   0.0800 
 37 H        0.3200    -9.3010    -0.8180 H     1 <1>   0.4500 
 38 H        2.2240    -6.3420     0.1100 H     1 <1>   0.0800 
 39 H        1.8340    -6.5760    -1.5660 H     1 <1>   0.0800 
 40 H       -5.6800    -6.6420     1.2560 H     1 <1>   0.0800 
 41 H       -5.5920    -8.1020     2.2190 H     1 <1>   0.0800 
 42 H       -6.1610    -8.1700     0.5660 H     1 <1>   0.0800 
 43 H       -2.2190   -10.9030    -1.6610 H     1 <1>   0.0800 
 44 H       -2.7070   -11.6090    -0.1390 H     1 <1>   0.0800 
 45 H       -1.0560   -11.1020    -0.3580 H     1 <1>   0.0800 
 46 H        4.3750    -7.0970    -1.0680 H     1 <1>   0.0800 
 47 H        3.6390    -7.8550    -2.4420 H     1 <1>   0.0800 
 48 H        2.1570    -8.9260     1.3280 H     1 <1>   0.0800 
 49 H        3.5490    -7.8940     1.2660 H     1 <1>   0.0800 
 50 H        5.8400    -8.7790    -0.8470 H     1 <1>   0.0800 
 51 H        5.2340    -9.4290    -2.3400 H     1 <1>   0.0800 
 52 H        3.4420   -10.7640     1.2360 H     1 <1>   0.0800 
 53 H        4.8270    -9.7300     1.4000 H     1 <1>   0.0800 
 54 H        3.5770   -10.6180    -1.1080 H     1 <1>   0.4500 
 55 H        6.2170   -11.2600     0.0530 H     1 <1>   0.0800 
 56 H        5.7810   -11.6010    -1.6050 H     1 <1>   0.0800 
 57 H        4.3690   -12.7070     0.8440 H     1 <1>   0.0800 
 58 H        5.3790   -13.5730    -0.2680 H     1 <1>   0.0800 
 59 H        3.8480   -12.9620    -0.8190 H     1 <1>   0.0800 
@<TRIPOS>BOND
  1   1   2  1   
  2   2   3  ar  
  3   2   4  ar  
  4   3   5  ar  
  5   3  31  1   
  6   4   6  ar  
  7   4  32  1   
  8   5   7  ar  
  9   5   8  1   
 10   6   7  ar  
 11   6  33  1   
 12   7  34  1   
 13   8   9  1   
 14   8  35  1   
 15   8  36  1   
 16   9  10  1   
 17   9  11  ar  
 18  10  12  1   
 19  10  13  2   
 20  11  14  ar  
 21  11  15  1   
 22  12  16  2   
 23  12  17  am  
 24  13  14  1   
 25  13  18  1   
 26  14  37  1   
 27  15  19  1   
 28  15  38  1   
 29  15  39  1   
 30  17  20  am  
 31  17  21  1   
 32  18  20  am  
 33  18  22  1   
 34  19  23  1   
 35  19  24  1   
 36  20  25  2   
 37  21  40  1   
 38  21  41  1   
 39  21  42  1   
 40  22  43  1   
 41  22  44  1   
 42  22  45  1   
 43  23  26  1   
 44  23  46  1   
 45  23  47  1   
 46  24  27  1   
 47  24  48  1   
 48  24  49  1   
 49  26  28  1   
 50  26  50  1   
 51  26  51  1   
 52  27  28  1   
 53  27  52  1   
 54  27  53  1   
 55  28  29  1   
 56  28  54  1   
 57  29  30  1   
 58  29  55  1   
 59  29  56  1   
 60  30  57  1   
 61  30  58  1   
 62  30  59  1   
@<TRIPOS>SUBSTRUCTURE
  1 ****  11 GROUP 4 **** **** 0

# MOE 2024.06 (io_trps.svl 2023.06)
