@<TRIPOS>MOLECULE
2-Oxo-6-piperidin-1-ylmethyl-4-o-tolyl-1,2,3,4-tetrahydro-pyrimidine-5-carboxyli
51 53 1 0 0 
SMALL
USER_CHARGES


@<TRIPOS>ATOM
  1 O        1.0150     0.7670     2.0160 O.2   1 <1>  -0.5700 
  2 C        0.6710     1.9140     1.8790 C.2   1 <1>   0.6900 
  3 N       -0.6500     2.2100     1.7960 N.am  1 <1>  -0.5390 
  4 N        1.5660     2.9070     1.7740 N.am  1 <1>  -0.7300 
  5 C       -1.1440     3.4870     1.5600 C.2   1 <1>  -0.0290 
  6 C        1.2270     4.3120     1.4870 C.3   1 <1>   0.5020 
  7 C       -0.2890     4.5380     1.4090 C.2   1 <1>  -0.1240 
  8 C       -2.6690     3.6020     1.4870 C.3   1 <1>   0.4810 
  9 C        1.9650     4.7610     0.2170 C.ar  1 <1>  -0.1440 
 10 C       -0.6630     5.8990     1.1750 C.2   1 <1>   0.7060 
 11 N       -3.1370     3.0380     0.1900 N.4   1 <1>  -0.9590 
 12 C        1.8620     4.1430    -1.0340 C.ar  1 <1>  -0.1430 
 13 C        2.7940     5.8720     0.3420 C.ar  1 <1>  -0.1500 
 14 O       -1.7330     6.1980     0.6790 O.2   1 <1>  -0.5700 
 15 O        0.1720     6.8740     1.5420 O.3   1 <1>  -0.4300 
 16 C       -2.8340     3.9760    -0.9340 C.3   1 <1>   0.3430 
 17 C       -4.5860     2.6970     0.2330 C.3   1 <1>   0.3430 
 18 C        2.5730     4.6540    -2.1110 C.ar  1 <1>  -0.1500 
 19 C        1.0190     2.9020    -1.3030 C.3   1 <1>  -0.0970 
 20 C        3.4960     6.3730    -0.7370 C.ar  1 <1>  -0.1500 
 21 C       -0.1150     8.2390     1.3010 C.3   1 <1>   0.0400 
 22 C       -3.1930     3.3160    -2.2650 C.3   1 <1>  -0.1600 
 23 C       -4.9880     2.0050    -1.0710 C.3   1 <1>  -0.1600 
 24 C        3.3840     5.7630    -1.9680 C.ar  1 <1>  -0.1500 
 25 C       -4.6600     2.8680    -2.2970 C.3   1 <1>  -0.1600 
 26 H       -1.2260     1.3910     1.9990 H     1 <1>   0.3700 
 27 H        2.5490     2.6500     1.6860 H     1 <1>   0.3700 
 28 H        1.5960     4.8880     2.3190 H     1 <1>   0.0800 
 29 H       -2.9880     4.6260     1.5810 H     1 <1>   0.0800 
 30 H       -3.0960     3.0480     2.3070 H     1 <1>   0.0800 
 31 H       -2.6040     2.1780     0.0150 H     1 <1>   0.4500 
 32 H        2.9040     6.3710     1.2900 H     1 <1>   0.1500 
 33 H       -1.7880     4.2370    -0.9340 H     1 <1>   0.0800 
 34 H       -3.4010     4.8870    -0.8140 H     1 <1>   0.0800 
 35 H       -5.1690     3.5970     0.3560 H     1 <1>   0.0800 
 36 H       -4.7910     2.0410     1.0640 H     1 <1>   0.0800 
 37 H        2.5080     4.1890    -3.0790 H     1 <1>   0.1500 
 38 H        0.9100     2.7330    -2.3600 H     1 <1>   0.0800 
 39 H        1.4970     2.0380    -0.8790 H     1 <1>   0.0800 
 40 H        0.0390     3.0050    -0.8870 H     1 <1>   0.0800 
 41 H        4.1300     7.2350    -0.6190 H     1 <1>   0.1500 
 42 H        0.7000     8.8310     1.6780 H     1 <1>   0.0800 
 43 H       -1.0270     8.5020     1.8080 H     1 <1>   0.0800 
 44 H       -0.2200     8.3920     0.2400 H     1 <1>   0.0800 
 45 H       -2.5460     2.4730    -2.4330 H     1 <1>   0.0800 
 46 H       -3.0180     4.0190    -3.0620 H     1 <1>   0.0800 
 47 H       -6.0450     1.8050    -1.0510 H     1 <1>   0.0800 
 48 H       -4.4840     1.0570    -1.1440 H     1 <1>   0.0800 
 49 H        3.9280     6.1480    -2.8140 H     1 <1>   0.1500 
 50 H       -4.8540     2.3130    -3.2000 H     1 <1>   0.0800 
 51 H       -5.2990     3.7370    -2.3050 H     1 <1>   0.0800 
@<TRIPOS>BOND
  1   1   2  2   
  2   2   3  am  
  3   2   4  am  
  4   3   5  1   
  5   3  26  1   
  6   4   6  1   
  7   4  27  1   
  8   5   7  2   
  9   5   8  1   
 10   6   7  1   
 11   6   9  1   
 12   6  28  1   
 13   7  10  1   
 14   8  11  1   
 15   8  29  1   
 16   8  30  1   
 17   9  12  ar  
 18   9  13  ar  
 19  10  14  2   
 20  10  15  1   
 21  11  16  1   
 22  11  17  1   
 23  11  31  1   
 24  12  18  ar  
 25  12  19  1   
 26  13  20  ar  
 27  13  32  1   
 28  15  21  1   
 29  16  22  1   
 30  16  33  1   
 31  16  34  1   
 32  17  23  1   
 33  17  35  1   
 34  17  36  1   
 35  18  24  ar  
 36  18  37  1   
 37  19  38  1   
 38  19  39  1   
 39  19  40  1   
 40  20  24  ar  
 41  20  41  1   
 42  21  42  1   
 43  21  43  1   
 44  21  44  1   
 45  22  25  1   
 46  22  45  1   
 47  22  46  1   
 48  23  25  1   
 49  23  47  1   
 50  23  48  1   
 51  24  49  1   
 52  25  50  1   
 53  25  51  1   
@<TRIPOS>SUBSTRUCTURE
  1 ****   7 GROUP 4 **** **** 0

# MOE 2024.06 (io_trps.svl 2023.06)
