@<TRIPOS>MOLECULE
8-sec-Butylamino-7-(2-hydroxy-3-m-tolyloxy-propyl)-1,3-dimethyl-3,7-dihydro-puri
60 62 1 0 0 
SMALL
USER_CHARGES


@<TRIPOS>ATOM
  1 O        0.6040     0.8570    -0.5460 O.2   1 <1>  -0.5740 
  2 C        1.6790     1.4020    -0.4070 C.2   1 <1>   0.6870 
  3 N        1.7460     2.7830    -0.2550 N.am  1 <1>  -0.4250 
  4 N        2.8420     0.6440    -0.3920 N.am  1 <1>  -0.4410 
  5 C        2.9570     3.4230    -0.0260 C.2   1 <1>   0.7000 
  6 C        0.4780     3.5780    -0.2980 C.3   1 <1>   0.0540 
  7 C        4.0390     1.2960    -0.1700 C.2   1 <1>   0.4210 
  8 C        2.7920    -0.8370    -0.5800 C.3   1 <1>   0.0540 
  9 O        3.0020     4.6290     0.1520 O.2   1 <1>  -0.5740 
 10 C        4.1490     2.6280     0.0060 C.2   1 <1>   0.2720 
 11 N        5.2780     0.7510    -0.0840 N.pl3 1 <1>  -0.7030 
 12 N        5.5220     2.9040     0.1950 N.pl3 1 <1>  -0.7670 
 13 C        6.1530     1.7230     0.1430 C.cat 1 <1>   1.0690 
 14 C        5.9810     4.3380     0.3110 C.3   1 <1>   0.3490 
 15 N        7.4520     1.5120     0.3000 N.pl3 1 <1>  -0.7170 
 16 C        7.5080     4.5990     0.2790 C.3   1 <1>   0.1940 
 17 C        8.2740     0.2930     0.1730 C.3   1 <1>   0.2420 
 18 O        8.1450     3.9590     1.3470 O.3   1 <1>  -0.6830 
 19 C        7.8440     6.0930     0.3300 C.3   1 <1>   0.1140 
 20 C        8.0850    -0.3950    -1.1890 C.3   1 <1>  -0.1660 
 21 C        7.9710    -0.6460     1.3380 C.3   1 <1>  -0.2460 
 22 O        7.1160     6.7410    -0.6860 O.3   1 <1>  -0.3670 
 23 C        8.3120     0.5410    -2.3860 C.3   1 <1>  -0.2460 
 24 C        7.0930     8.0930    -0.7740 C.ar  1 <1>   0.0760 
 25 C        7.9380     8.9290    -0.0480 C.ar  1 <1>  -0.1560 
 26 C        6.1640     8.6460    -1.6400 C.ar  1 <1>  -0.1560 
 27 C        7.8440    10.3050    -0.1810 C.ar  1 <1>  -0.1500 
 28 C        6.0690    10.0190    -1.7770 C.ar  1 <1>  -0.1560 
 29 C        6.9070    10.8450    -1.0480 C.ar  1 <1>  -0.1560 
 30 C        8.7620    11.2200     0.6080 C.3   1 <1>  -0.1030 
 31 H        0.0000     3.5460     0.6660 H     1 <1>   0.0740 
 32 H       -0.1940     3.1670    -1.0320 H     1 <1>   0.0740 
 33 H        0.6730     4.6040    -0.5590 H     1 <1>   0.0740 
 34 H        1.8890    -1.1240    -1.0920 H     1 <1>   0.0740 
 35 H        2.8110    -1.3250     0.3790 H     1 <1>   0.0740 
 36 H        3.6280    -1.1690    -1.1690 H     1 <1>   0.0740 
 37 H        5.5410    -0.2260    -0.1600 H     1 <1>   0.4460 
 38 H        5.5760     4.7640     1.2140 H     1 <1>   0.0740 
 39 H        5.5400     4.8820    -0.5080 H     1 <1>   0.0740 
 40 H        7.9820     2.3260     0.6420 H     1 <1>   0.4460 
 41 H        7.9160     4.1950    -0.6320 H     1 <1>   0.0740 
 42 H        9.3080     0.5900     0.2470 H     1 <1>   0.0740 
 43 H        8.1300     4.5200     2.1550 H     1 <1>   0.3950 
 44 H        8.8920     6.2550     0.1460 H     1 <1>   0.0740 
 45 H        7.5500     6.5230     1.2720 H     1 <1>   0.0740 
 46 H        7.1150    -0.8500    -1.2650 H     1 <1>   0.0740 
 47 H        8.8030    -1.1960    -1.2550 H     1 <1>   0.0740 
 48 H        6.9630    -1.0150     1.3060 H     1 <1>   0.0740 
 49 H        8.1380    -0.1450     2.2750 H     1 <1>   0.0740 
 50 H        8.6340    -1.4920     1.2970 H     1 <1>   0.0740 
 51 H        7.5680     1.3150    -2.4310 H     1 <1>   0.0740 
 52 H        8.2630    -0.0220    -3.3030 H     1 <1>   0.0740 
 53 H        9.2860     0.9970    -2.3270 H     1 <1>   0.0740 
 54 H        8.6760     8.5290     0.6200 H     1 <1>   0.1440 
 55 H        5.5150     8.0020    -2.2040 H     1 <1>   0.1440 
 56 H        5.3450    10.4450    -2.4490 H     1 <1>   0.1440 
 57 H        6.8270    11.9120    -1.1600 H     1 <1>   0.1440 
 58 H        9.6300    11.4590     0.0200 H     1 <1>   0.0740 
 59 H        9.0790    10.7450     1.5190 H     1 <1>   0.0740 
 60 H        8.2530    12.1320     0.8620 H     1 <1>   0.0740 
@<TRIPOS>BOND
  1   1   2  2   
  2   2   3  am  
  3   2   4  am  
  4   3   5  am  
  5   3   6  1   
  6   4   7  1   
  7   4   8  1   
  8   5   9  2   
  9   5  10  1   
 10   6  31  1   
 11   6  32  1   
 12   6  33  1   
 13   7  10  2   
 14   7  11  1   
 15   8  34  1   
 16   8  35  1   
 17   8  36  1   
 18  10  12  1   
 19  11  13  ar  
 20  11  37  1   
 21  12  13  ar  
 22  12  14  1   
 23  13  15  ar  
 24  14  16  1   
 25  14  38  1   
 26  14  39  1   
 27  15  17  1   
 28  15  40  1   
 29  16  18  1   
 30  16  19  1   
 31  16  41  1   
 32  17  20  1   
 33  17  21  1   
 34  17  42  1   
 35  18  43  1   
 36  19  22  1   
 37  19  44  1   
 38  19  45  1   
 39  20  23  1   
 40  20  46  1   
 41  20  47  1   
 42  21  48  1   
 43  21  49  1   
 44  21  50  1   
 45  22  24  1   
 46  23  51  1   
 47  23  52  1   
 48  23  53  1   
 49  24  25  ar  
 50  24  26  ar  
 51  25  27  ar  
 52  25  54  1   
 53  26  28  ar  
 54  26  55  1   
 55  27  29  ar  
 56  27  30  1   
 57  28  29  ar  
 58  28  56  1   
 59  29  57  1   
 60  30  58  1   
 61  30  59  1   
 62  30  60  1   
@<TRIPOS>SUBSTRUCTURE
  1 ****  14 GROUP 4 **** **** 0

# MOE 2024.06 (io_trps.svl 2023.06)
