@<TRIPOS>MOLECULE
1-[4-(2-Hydroxy-3-pyrrolidin-1-yl-propoxy)-3-methoxy-phenyl]-ethanone
45 46 1 0 0 
SMALL
USER_CHARGES


@<TRIPOS>ATOM
  1 O       -1.5050    -0.8800     2.4000 O.2   1 <1>  -0.5700 
  2 C       -2.2220    -1.6910     1.8740 C.2   1 <1>   0.4230 
  3 C       -3.4030    -1.3260     1.1160 C.ar  1 <1>   0.0860 
  4 C       -1.8270    -3.1460     2.0380 C.3   1 <1>  -0.1790 
  5 C       -4.3070    -2.2650     0.6040 C.ar  1 <1>  -0.1500 
  6 C       -3.6850     0.0200     0.8700 C.ar  1 <1>  -0.1500 
  7 C       -5.4270    -1.8820    -0.1210 C.ar  1 <1>   0.0830 
  8 C       -4.7950     0.4200     0.1510 C.ar  1 <1>  -0.1500 
  9 O       -6.3190    -2.7890    -0.6110 O.3   1 <1>  -0.3630 
 10 C       -5.6760    -0.5280    -0.3510 C.ar  1 <1>   0.0830 
 11 C       -5.8790    -4.0780    -0.9890 C.3   1 <1>   0.0400 
 12 O       -6.7740    -0.1840    -1.0650 O.3   1 <1>  -0.3630 
 13 C       -7.4500     1.0300    -0.8190 C.3   1 <1>   0.1200 
 14 C       -8.8580     0.9430    -1.4280 C.3   1 <1>   0.2000 
 15 O       -9.7050     1.7940    -0.7100 O.3   1 <1>  -0.6800 
 16 C       -9.4630    -0.4820    -1.3960 C.3   1 <1>   0.3430 
 17 N       -9.9590    -0.8360    -0.0300 N.4   1 <1>  -0.9590 
 18 C       -8.9160    -1.4230     0.8440 C.3   1 <1>   0.3430 
 19 C      -11.0920    -1.7830    -0.0210 C.3   1 <1>   0.3430 
 20 C       -9.6960    -2.1200     1.9500 C.3   1 <1>  -0.1600 
 21 C      -11.1110    -2.3270     1.4010 C.3   1 <1>  -0.1600 
 22 H       -1.7340    -3.6160     1.0770 H     1 <1>   0.0800 
 23 H       -2.5600    -3.6620     2.6290 H     1 <1>   0.0800 
 24 H       -0.8780    -3.2110     2.5400 H     1 <1>   0.0800 
 25 H       -4.1310    -3.3060     0.7870 H     1 <1>   0.1500 
 26 H       -3.0090     0.7690     1.2510 H     1 <1>   0.1500 
 27 H       -4.9510     1.4700    -0.0190 H     1 <1>   0.1500 
 28 H       -6.6600    -4.5460    -1.5610 H     1 <1>   0.0800 
 29 H       -5.6800    -4.6580    -0.1050 H     1 <1>   0.0800 
 30 H       -4.9940    -3.9840    -1.5940 H     1 <1>   0.0800 
 31 H       -6.8860     1.8290    -1.2670 H     1 <1>   0.0800 
 32 H       -7.5070     1.1660     0.2470 H     1 <1>   0.0800 
 33 H       -8.8230     1.2860    -2.4480 H     1 <1>   0.0800 
 34 H       -9.5000     2.7360    -0.8940 H     1 <1>   0.4000 
 35 H       -8.7390    -1.2050    -1.7350 H     1 <1>   0.0800 
 36 H      -10.2890    -0.4990    -2.0870 H     1 <1>   0.0800 
 37 H      -10.2700     0.0610     0.3820 H     1 <1>   0.4500 
 38 H       -8.2470    -0.6730     1.2340 H     1 <1>   0.0800 
 39 H       -8.3480    -2.1520     0.2900 H     1 <1>   0.0800 
 40 H      -10.8980    -2.5880    -0.7120 H     1 <1>   0.0800 
 41 H      -12.0200    -1.2990    -0.2790 H     1 <1>   0.0800 
 42 H       -9.7190    -1.4990     2.8280 H     1 <1>   0.0800 
 43 H       -9.2240    -3.0540     2.2030 H     1 <1>   0.0800 
 44 H      -11.3960    -3.3650     1.4040 H     1 <1>   0.0800 
 45 H      -11.8240    -1.7750     1.9890 H     1 <1>   0.0800 
@<TRIPOS>BOND
  1   1   2  2   
  2   2   3  1   
  3   2   4  1   
  4   3   5  ar  
  5   3   6  ar  
  6   4  22  1   
  7   4  23  1   
  8   4  24  1   
  9   5   7  ar  
 10   5  25  1   
 11   6   8  ar  
 12   6  26  1   
 13   7   9  1   
 14   7  10  ar  
 15   8  10  ar  
 16   8  27  1   
 17   9  11  1   
 18  10  12  1   
 19  11  28  1   
 20  11  29  1   
 21  11  30  1   
 22  12  13  1   
 23  13  14  1   
 24  13  31  1   
 25  13  32  1   
 26  14  15  1   
 27  14  16  1   
 28  14  33  1   
 29  15  34  1   
 30  16  17  1   
 31  16  35  1   
 32  16  36  1   
 33  17  18  1   
 34  17  19  1   
 35  17  37  1   
 36  18  20  1   
 37  18  38  1   
 38  18  39  1   
 39  19  21  1   
 40  19  40  1   
 41  19  41  1   
 42  20  21  1   
 43  20  42  1   
 44  20  43  1   
 45  21  44  1   
 46  21  45  1   
@<TRIPOS>SUBSTRUCTURE
  1 ****  10 GROUP 4 **** **** 0

# MOE 2024.06 (io_trps.svl 2023.06)
