@<TRIPOS>MOLECULE
Cyclohexanecarboxylic acid [3-(4-methoxy-phenyl)-[1,2,4]oxadiazol-5-ylmethyl]-am
44 46 1 0 0 
SMALL
USER_CHARGES


@<TRIPOS>ATOM
  1 O       -1.2080    -0.3690    -0.6870 O.2   1 <1>  -0.5700 
  2 C       -1.9540    -0.8990     0.0960 C.2   1 <1>   0.5690 
  3 N       -1.4580    -1.8780     0.8900 N.am  1 <1>  -0.7300 
  4 C       -3.4240    -0.4620     0.1560 C.3   1 <1>  -0.0190 
  5 C       -2.1540    -2.7140     1.9070 C.3   1 <1>   0.3200 
  6 C       -4.2180    -1.0450    -1.0290 C.3   1 <1>  -0.1600 
  7 C       -3.5770     1.0710     0.1920 C.3   1 <1>  -0.1600 
  8 C       -3.2450    -3.5850     1.3000 C.2   1 <1>   0.2980 
  9 C       -5.6990    -0.6470    -0.9560 C.3   1 <1>  -0.1600 
 10 C       -5.0550     1.4830     0.2630 C.3   1 <1>  -0.1600 
 11 O       -2.9090    -4.5000     0.4300 O.3   1 <1>  -0.0190 
 12 N       -4.4870    -3.5060     1.5550 N.2   1 <1>  -0.5650 
 13 C       -5.8570     0.8780    -0.8980 C.3   1 <1>  -0.1600 
 14 N       -4.0360    -5.0420     0.0910 N.2   1 <1>  -0.4100 
 15 C       -4.9730    -4.4530     0.7470 C.2   1 <1>   0.4620 
 16 C       -6.3940    -4.7400     0.6410 C.ar  1 <1>   0.0540 
 17 C       -7.3490    -3.9890     1.3310 C.ar  1 <1>  -0.1500 
 18 C       -6.8660    -5.7790    -0.1640 C.ar  1 <1>  -0.1500 
 19 C       -8.7000    -4.2620     1.2230 C.ar  1 <1>  -0.1500 
 20 C       -8.2150    -6.0590    -0.2790 C.ar  1 <1>  -0.1500 
 21 C       -9.1460    -5.2960     0.4190 C.ar  1 <1>   0.0820 
 22 O      -10.4840    -5.4990     0.3650 O.3   1 <1>  -0.3620 
 23 C      -11.0410    -6.5280    -0.4220 C.3   1 <1>   0.0400 
 24 H       -0.4790    -2.1100     0.7120 H     1 <1>   0.3700 
 25 H       -3.8580    -0.8360     1.0630 H     1 <1>   0.0800 
 26 H       -2.5900    -2.0720     2.6520 H     1 <1>   0.0800 
 27 H       -1.4350    -3.3480     2.3940 H     1 <1>   0.0800 
 28 H       -4.1370    -2.1170    -1.0350 H     1 <1>   0.0800 
 29 H       -3.7950    -0.6830    -1.9500 H     1 <1>   0.0800 
 30 H       -3.1320     1.4950    -0.6920 H     1 <1>   0.0800 
 31 H       -3.0510     1.4660     1.0440 H     1 <1>   0.0800 
 32 H       -6.1440    -1.0890    -0.0800 H     1 <1>   0.0800 
 33 H       -6.2170    -1.0320    -1.8170 H     1 <1>   0.0800 
 34 H       -5.1310     2.5560     0.2320 H     1 <1>   0.0800 
 35 H       -5.4750     1.1490     1.1960 H     1 <1>   0.0800 
 36 H       -6.8980     1.1290    -0.7870 H     1 <1>   0.0800 
 37 H       -5.5120     1.3040    -1.8250 H     1 <1>   0.0800 
 38 H       -7.0300    -3.1780     1.9630 H     1 <1>   0.1500 
 39 H       -6.1600    -6.3800    -0.7120 H     1 <1>   0.1500 
 40 H       -9.4200    -3.6730     1.7620 H     1 <1>   0.1500 
 41 H       -8.5230    -6.8690    -0.9110 H     1 <1>   0.1500 
 42 H      -12.1100    -6.4950    -0.3060 H     1 <1>   0.0800 
 43 H      -10.6650    -7.4740    -0.0760 H     1 <1>   0.0800 
 44 H      -10.7800    -6.3600    -1.4510 H     1 <1>   0.0800 
@<TRIPOS>BOND
  1   1   2  2   
  2   2   3  am  
  3   2   4  1   
  4   3   5  1   
  5   3  24  1   
  6   4   6  1   
  7   4   7  1   
  8   4  25  1   
  9   5   8  1   
 10   5  26  1   
 11   5  27  1   
 12   6   9  1   
 13   6  28  1   
 14   6  29  1   
 15   7  10  1   
 16   7  30  1   
 17   7  31  1   
 18   8  11  1   
 19   8  12  2   
 20   9  13  1   
 21   9  32  1   
 22   9  33  1   
 23  10  13  1   
 24  10  34  1   
 25  10  35  1   
 26  11  14  1   
 27  12  15  1   
 28  13  36  1   
 29  13  37  1   
 30  14  15  2   
 31  15  16  1   
 32  16  17  ar  
 33  16  18  ar  
 34  17  19  ar  
 35  17  38  1   
 36  18  20  ar  
 37  18  39  1   
 38  19  21  ar  
 39  19  40  1   
 40  20  21  ar  
 41  20  41  1   
 42  21  22  1   
 43  22  23  1   
 44  23  42  1   
 45  23  43  1   
 46  23  44  1   
@<TRIPOS>SUBSTRUCTURE
  1 ****  12 GROUP 4 **** **** 0

# MOE 2024.06 (io_trps.svl 2023.06)
