@<TRIPOS>MOLECULE
8-(3-Ethoxy-propyl)-1,3,6,7-tetramethyl-1H,8H-imidazo[2,1-f]purine-2,4-dione
48 50 1 0 0 
SMALL
USER_CHARGES


@<TRIPOS>ATOM
  1 O        0.9690    -0.1430     0.0870 O.2   1 <1>  -0.5750 
  2 C        1.9230     0.6000    -0.0100 C.2   1 <1>   0.6860 
  3 N        1.7300     1.9760    -0.0920 N.am  1 <1>  -0.4260 
  4 N        3.2100     0.0750    -0.0280 N.am  1 <1>  -0.4420 
  5 C        2.8070     2.8540    -0.1280 C.2   1 <1>   0.6990 
  6 C        0.3330     2.5140    -0.0970 C.3   1 <1>   0.0520 
  7 C        4.2720     0.9540    -0.0680 C.2   1 <1>   0.4200 
  8 C        3.4310    -1.4020     0.0330 C.3   1 <1>   0.0520 
  9 O        2.6250     4.0600    -0.1630 O.2   1 <1>  -0.5750 
 10 C        4.1220     2.3000    -0.1180 C.2   1 <1>   0.2700 
 11 N        5.6020     0.6500    -0.0600 N.pl3 1 <1>  -0.7040 
 12 N        5.4210     2.8380    -0.1430 N.pl3 1 <1>  -0.6330 
 13 C        6.2640     1.8140    -0.1060 C.cat 1 <1>   1.0690 
 14 C        6.1840     3.9850    -0.1870 C.2   1 <1>   0.2340 
 15 N        7.5450     2.2200    -0.1240 N.pl3 1 <1>  -0.5720 
 16 C        7.4850     3.6070    -0.1760 C.2   1 <1>   0.1570 
 17 C        5.5270     5.3510    -0.2370 C.3   1 <1>  -0.1100 
 18 C        8.8120     1.4310    -0.0970 C.3   1 <1>   0.1600 
 19 C        8.7440     4.4570    -0.2100 C.3   1 <1>  -0.1100 
 20 C        8.5600    -0.0750    -0.0410 C.3   1 <1>  -0.1670 
 21 C        9.8570    -0.8740    -0.0150 C.3   1 <1>   0.1120 
 22 O        9.4780    -2.2030     0.0350 O.3   1 <1>  -0.5650 
 23 C       10.5430    -3.0940     0.0650 C.3   1 <1>   0.1120 
 24 C        9.9670    -4.5020     0.1180 C.3   1 <1>  -0.2470 
 25 H       -0.3240     1.8450    -0.6260 H     1 <1>   0.0720 
 26 H        0.2930     3.4750    -0.5810 H     1 <1>   0.0720 
 27 H       -0.0170     2.6160     0.9150 H     1 <1>   0.0720 
 28 H        2.5640    -1.9300    -0.3270 H     1 <1>   0.0720 
 29 H        3.6150    -1.6990     1.0510 H     1 <1>   0.0720 
 30 H        4.2690    -1.6830    -0.5800 H     1 <1>   0.0720 
 31 H        6.0450    -0.2670    -0.0180 H     1 <1>   0.4450 
 32 H        4.9060     5.4290    -1.1110 H     1 <1>   0.0720 
 33 H        6.2620     6.1340    -0.2690 H     1 <1>   0.0720 
 34 H        4.9130     5.4950     0.6340 H     1 <1>   0.0720 
 35 H        9.3890     1.7270     0.7630 H     1 <1>   0.0720 
 36 H        9.3850     1.6620    -0.9800 H     1 <1>   0.0720 
 37 H        9.3320     4.2170    -1.0780 H     1 <1>   0.0720 
 38 H        9.3350     4.2820     0.6710 H     1 <1>   0.0720 
 39 H        8.5010     5.5030    -0.2490 H     1 <1>   0.0720 
 40 H        8.0120    -0.3820    -0.9140 H     1 <1>   0.0720 
 41 H        8.0170    -0.3170     0.8560 H     1 <1>   0.0720 
 42 H       10.4430    -0.6450     0.8600 H     1 <1>   0.0720 
 43 H       10.4370    -0.7110    -0.9080 H     1 <1>   0.0720 
 44 H       11.1400    -2.8960     0.9390 H     1 <1>   0.0720 
 45 H       11.1350    -2.9610    -0.8250 H     1 <1>   0.0720 
 46 H        9.3690    -4.6240     1.0040 H     1 <1>   0.0720 
 47 H       10.7650    -5.2210     0.1430 H     1 <1>   0.0720 
 48 H        9.3640    -4.6880    -0.7520 H     1 <1>   0.0720 
@<TRIPOS>BOND
  1   1   2  2   
  2   2   3  am  
  3   2   4  am  
  4   3   5  am  
  5   3   6  1   
  6   4   7  1   
  7   4   8  1   
  8   5   9  2   
  9   5  10  1   
 10   6  25  1   
 11   6  26  1   
 12   6  27  1   
 13   7  10  2   
 14   7  11  1   
 15   8  28  1   
 16   8  29  1   
 17   8  30  1   
 18  10  12  1   
 19  11  13  ar  
 20  11  31  1   
 21  12  13  ar  
 22  12  14  1   
 23  13  15  ar  
 24  14  16  2   
 25  14  17  1   
 26  15  16  1   
 27  15  18  1   
 28  16  19  1   
 29  17  32  1   
 30  17  33  1   
 31  17  34  1   
 32  18  20  1   
 33  18  35  1   
 34  18  36  1   
 35  19  37  1   
 36  19  38  1   
 37  19  39  1   
 38  20  21  1   
 39  20  40  1   
 40  20  41  1   
 41  21  22  1   
 42  21  42  1   
 43  21  43  1   
 44  22  23  1   
 45  23  24  1   
 46  23  44  1   
 47  23  45  1   
 48  24  46  1   
 49  24  47  1   
 50  24  48  1   
@<TRIPOS>SUBSTRUCTURE
  1 ****  11 GROUP 4 **** **** 0

# MOE 2024.06 (io_trps.svl 2023.06)
