@<TRIPOS>MOLECULE
1-Methyl-7-p-tolyloxymethyl-6,7-dihydro-1H-oxazolo[2,3-f]purine-2,4-dione
40 43 1 0 0 
SMALL
USER_CHARGES


@<TRIPOS>ATOM
  1 O        0.5260     0.2410    -0.7350 O.2   1 <1>  -0.5700 
  2 C        1.5160     0.9080    -0.5130 C.2   1 <1>   0.6900 
  3 N        2.6750     0.3610     0.0080 N.am  1 <1>  -0.4230 
  4 N        1.4660     2.2440    -0.7950 N.am  1 <1>  -0.4900 
  5 C        3.7680     1.1990     0.2290 C.2   1 <1>   0.2900 
  6 C        2.8000    -1.0800     0.3440 C.3   1 <1>   0.0600 
  7 C        2.5090     3.0910    -0.5940 C.2   1 <1>   0.7150 
  8 N        4.9720     0.8480     0.7170 N.2   1 <1>  -0.5650 
  9 C        3.6850     2.5230    -0.0610 C.2   1 <1>  -0.2370 
 10 O        2.3990     4.2680    -0.8750 O.2   1 <1>  -0.5700 
 11 C        5.5880     1.9890     0.7120 C.2   1 <1>   0.2490 
 12 N        4.8950     3.0280     0.2680 N.pl3 1 <1>   0.0480 
 13 O        6.8360     2.3010     1.0620 O.3   1 <1>  -0.3430 
 14 C        5.6970     4.2340     0.2960 C.3   1 <1>   0.0960 
 15 C        7.0710     3.6690     0.7280 C.3   1 <1>   0.2000 
 16 C        8.1100     3.7600    -0.4010 C.3   1 <1>   0.1200 
 17 O        9.3850     3.3600     0.0610 O.3   1 <1>  -0.3630 
 18 C        9.9280     2.1550    -0.2500 C.ar  1 <1>   0.0820 
 19 C       11.3050     2.0470    -0.1420 C.ar  1 <1>  -0.1500 
 20 C        9.1910     1.0480    -0.6620 C.ar  1 <1>  -0.1500 
 21 C       11.9440     0.8600    -0.4510 C.ar  1 <1>  -0.1500 
 22 C        9.8330    -0.1380    -0.9700 C.ar  1 <1>  -0.1500 
 23 C       11.2120    -0.2390    -0.8710 C.ar  1 <1>  -0.1430 
 24 C       11.9110    -1.5430    -1.2080 C.3   1 <1>  -0.0970 
 25 H        0.6040     2.6140    -1.1750 H     1 <1>   0.3700 
 26 H        1.8880    -1.6070     0.1280 H     1 <1>   0.0800 
 27 H        3.0270    -1.1840     1.3910 H     1 <1>   0.0800 
 28 H        3.6010    -1.5120    -0.2300 H     1 <1>   0.0800 
 29 H        5.3060     4.9180     1.0260 H     1 <1>   0.0800 
 30 H        5.7200     4.6950    -0.6750 H     1 <1>   0.0800 
 31 H        7.4330     4.1770     1.6040 H     1 <1>   0.0800 
 32 H        8.2100     4.7840    -0.7100 H     1 <1>   0.0800 
 33 H        7.8260     3.1790    -1.2600 H     1 <1>   0.0800 
 34 H       11.8720     2.8990     0.1840 H     1 <1>   0.1500 
 35 H        8.1210     1.0820    -0.7360 H     1 <1>   0.1500 
 36 H       13.0140     0.7950    -0.3620 H     1 <1>   0.1500 
 37 H        9.2500    -0.9860    -1.2830 H     1 <1>   0.1500 
 38 H       12.8920    -1.3500    -1.6040 H     1 <1>   0.0800 
 39 H       11.3500    -2.0920    -1.9420 H     1 <1>   0.0800 
 40 H       12.0060    -2.1430    -0.3210 H     1 <1>   0.0800 
@<TRIPOS>BOND
  1   1   2  2   
  2   2   3  am  
  3   2   4  am  
  4   3   5  1   
  5   3   6  1   
  6   4   7  am  
  7   4  25  1   
  8   5   8  1   
  9   5   9  2   
 10   6  26  1   
 11   6  27  1   
 12   6  28  1   
 13   7   9  1   
 14   7  10  2   
 15   8  11  2   
 16   9  12  1   
 17  11  12  1   
 18  11  13  1   
 19  12  14  1   
 20  13  15  1   
 21  14  15  1   
 22  14  29  1   
 23  14  30  1   
 24  15  16  1   
 25  15  31  1   
 26  16  17  1   
 27  16  32  1   
 28  16  33  1   
 29  17  18  1   
 30  18  19  ar  
 31  18  20  ar  
 32  19  21  ar  
 33  19  34  1   
 34  20  22  ar  
 35  20  35  1   
 36  21  23  ar  
 37  21  36  1   
 38  22  23  ar  
 39  22  37  1   
 40  23  24  1   
 41  24  38  1   
 42  24  39  1   
 43  24  40  1   
@<TRIPOS>SUBSTRUCTURE
  1 ****  11 GROUP 4 **** **** 0

# MOE 2024.06 (io_trps.svl 2023.06)
