@<TRIPOS>MOLECULE
5-[7-(2-Fluoro-benzyl)-1,3-dimethyl-2,6-dioxo-2,3,6,7-tetrahydro-1H-purin-8-ylsu
49 51 1 0 0 
SMALL
USER_CHARGES


@<TRIPOS>ATOM
  1 S       -0.2430     1.0900     0.1730 S.3   1 <1>  -0.3220 
  2 C       -1.9520     0.8660    -0.2120 C.cat 1 <1>   0.8920 
  3 C        0.3300    -0.4760     0.9770 C.3   1 <1>   0.0700 
  4 N       -2.6490    -0.2170     0.0920 N.pl3 1 <1>  -0.7000 
  5 N       -2.6850     1.7740    -0.8240 N.pl3 1 <1>  -0.7640 
  6 C        1.8330    -0.3870     1.2800 C.3   1 <1>  -0.1600 
  7 C       -3.9190     0.0060    -0.3470 C.2   1 <1>   0.4260 
  8 C       -3.9700     1.2310    -0.9280 C.2   1 <1>   0.2770 
  9 C       -2.3000     3.1400    -1.2750 C.3   1 <1>   0.4970 
 10 C        2.7210    -0.3090     0.0220 C.3   1 <1>  -0.1600 
 11 N       -5.0120    -0.8330    -0.2350 N.am  1 <1>  -0.4360 
 12 C       -5.2170     1.6770    -1.4840 C.2   1 <1>   0.7030 
 13 C       -2.8880     4.1820    -0.3330 C.ar  1 <1>  -0.1430 
 14 C        3.2440     1.1100    -0.2670 C.3   1 <1>   0.0400 
 15 C       -6.2360    -0.3780    -0.7090 C.2   1 <1>   0.6900 
 16 C       -4.9050    -2.1700     0.4220 C.3   1 <1>   0.0600 
 17 O       -5.3010     2.7390    -2.0710 O.2   1 <1>  -0.5700 
 18 N       -6.3250     0.8510    -1.3510 N.am  1 <1>  -0.4200 
 19 C       -3.5260     5.3040    -0.8420 C.ar  1 <1>   0.1900 
 20 C       -2.8050     4.0620     1.0510 C.ar  1 <1>  -0.1500 
 21 C        4.0010     1.1600    -1.5500 C.1   1 <1>   0.3570 
 22 O       -7.2310    -1.0560    -0.5540 O.2   1 <1>  -0.5700 
 23 C       -7.6550     1.2990    -1.8760 C.3   1 <1>   0.0600 
 24 F       -3.5920     5.4720    -2.1360 F     1 <1>  -0.1900 
 25 C       -4.0910     6.2740    -0.0360 C.ar  1 <1>  -0.1500 
 26 C       -3.3640     5.0270     1.8760 C.ar  1 <1>  -0.1500 
 27 N        4.5580     1.1950    -2.5400 N.1   1 <1>  -0.5570 
 28 C       -4.0090     6.1290     1.3370 C.ar  1 <1>  -0.1500 
 29 H        0.1200    -1.2890     0.3030 H     1 <1>   0.0800 
 30 H       -0.2330    -0.5920     1.8870 H     1 <1>   0.0800 
 31 H       -2.3110    -1.0460     0.5730 H     1 <1>   0.4500 
 32 H        2.1030    -1.2800     1.8200 H     1 <1>   0.0800 
 33 H        2.0280     0.4420     1.9400 H     1 <1>   0.0800 
 34 H       -2.6550     3.2860    -2.2810 H     1 <1>   0.0800 
 35 H       -1.2280     3.2450    -1.2900 H     1 <1>   0.0800 
 36 H        2.1890    -0.6850    -0.8360 H     1 <1>   0.0800 
 37 H        3.5760    -0.9500     0.1640 H     1 <1>   0.0800 
 38 H        3.8960     1.4290     0.5260 H     1 <1>   0.0800 
 39 H        2.4340     1.8100    -0.3370 H     1 <1>   0.0800 
 40 H       -3.9690    -2.6380     0.1760 H     1 <1>   0.0800 
 41 H       -5.6970    -2.8200     0.0880 H     1 <1>   0.0800 
 42 H       -4.9840    -2.0580     1.4900 H     1 <1>   0.0800 
 43 H       -2.3050     3.2260     1.5060 H     1 <1>   0.1500 
 44 H       -8.2270     1.7390    -1.0780 H     1 <1>   0.0800 
 45 H       -8.2010     0.4600    -2.2720 H     1 <1>   0.0800 
 46 H       -7.5370     2.0230    -2.6630 H     1 <1>   0.0800 
 47 H       -4.5810     7.1240    -0.4770 H     1 <1>   0.1500 
 48 H       -3.2960     4.9250     2.9460 H     1 <1>   0.1500 
 49 H       -4.4420     6.8730     1.9850 H     1 <1>   0.1500 
@<TRIPOS>BOND
  1   1   2  1   
  2   1   3  1   
  3   2   4  ar  
  4   2   5  ar  
  5   3   6  1   
  6   3  29  1   
  7   3  30  1   
  8   4   7  1   
  9   4  31  1   
 10   5   8  1   
 11   5   9  1   
 12   6  10  1   
 13   6  32  1   
 14   6  33  1   
 15   7   8  2   
 16   7  11  1   
 17   8  12  1   
 18   9  13  1   
 19   9  34  1   
 20   9  35  1   
 21  10  14  1   
 22  10  36  1   
 23  10  37  1   
 24  11  15  am  
 25  11  16  1   
 26  12  17  2   
 27  12  18  am  
 28  13  19  ar  
 29  13  20  ar  
 30  14  21  1   
 31  14  38  1   
 32  14  39  1   
 33  15  18  am  
 34  15  22  2   
 35  16  40  1   
 36  16  41  1   
 37  16  42  1   
 38  18  23  1   
 39  19  24  1   
 40  19  25  ar  
 41  20  26  ar  
 42  20  43  1   
 43  21  27  3   
 44  23  44  1   
 45  23  45  1   
 46  23  46  1   
 47  25  28  ar  
 48  25  47  1   
 49  26  28  ar  
 50  26  48  1   
 51  28  49  1   
@<TRIPOS>SUBSTRUCTURE
  1 ****   5 GROUP 4 **** **** 0

# MOE 2024.06 (io_trps.svl 2023.06)
