@<TRIPOS>MOLECULE
6-(2,3-Dihydro-benzo[1,4]dioxin-2-yl)-3-ethyl-[1,2,4]triazolo[3,4-b][1,3,4]thiad
32 35 1 0 0 
SMALL
USER_CHARGES


@<TRIPOS>ATOM
  1 S       -1.1950     1.0930    -2.1490 S.3   1 <1>  -0.1970 
  2 C        0.1710     2.1210    -1.7700 C.2   1 <1>   0.2420 
  3 C       -1.7520     1.2950    -0.4710 C.2   1 <1>   0.5300 
  4 N        1.1930     2.5740    -2.4010 N.2   1 <1>  -0.3380 
  5 N        0.0850     2.4930    -0.5060 N.pl3 1 <1>   0.5050 
  6 N       -0.9960     2.0260     0.2520 N.2   1 <1>  -0.6520 
  7 C       -3.0380     0.5680    -0.1010 C.3   1 <1>   0.2610 
  8 N        1.8500     3.3130    -1.4860 N.2   1 <1>  -0.3380 
  9 C        1.1820     3.2550    -0.3710 C.2   1 <1>   0.0060 
 10 O       -4.1110     1.0820    -0.8770 O.3   1 <1>  -0.3630 
 11 C       -3.3680     0.7050     1.3940 C.3   1 <1>   0.1200 
 12 C        1.5370     3.9340     0.9460 C.3   1 <1>   0.0200 
 13 C       -5.3680     0.7700    -0.4730 C.ar  1 <1>   0.0820 
 14 O       -4.5960     0.0640     1.6850 O.3   1 <1>  -0.3630 
 15 C        2.8290     4.7570     0.8690 C.3   1 <1>  -0.2400 
 16 C       -5.6080     0.2480     0.8000 C.ar  1 <1>   0.0830 
 17 C       -6.4210     0.9700    -1.3480 C.ar  1 <1>  -0.1500 
 18 C       -6.8970    -0.0840     1.1790 C.ar  1 <1>  -0.1500 
 19 C       -7.7110     0.6410    -0.9630 C.ar  1 <1>  -0.1500 
 20 C       -7.9480     0.1130     0.2970 C.ar  1 <1>  -0.1500 
 21 H       -2.9320    -0.4730    -0.3470 H     1 <1>   0.0800 
 22 H       -3.4600     1.7420     1.6660 H     1 <1>   0.0800 
 23 H       -2.6060     0.2490     1.9990 H     1 <1>   0.0800 
 24 H        1.6460     3.1810     1.7060 H     1 <1>   0.0800 
 25 H        0.7260     4.5790     1.2330 H     1 <1>   0.0800 
 26 H        3.6570     4.1250     0.6010 H     1 <1>   0.0800 
 27 H        3.0360     5.2160     1.8190 H     1 <1>   0.0800 
 28 H        2.7330     5.5290     0.1250 H     1 <1>   0.0800 
 29 H       -6.2300     1.3790    -2.3240 H     1 <1>   0.1500 
 30 H       -7.0730    -0.4910     2.1580 H     1 <1>   0.1500 
 31 H       -8.5310     0.7950    -1.6430 H     1 <1>   0.1500 
 32 H       -8.9510    -0.1440     0.5920 H     1 <1>   0.1500 
@<TRIPOS>BOND
  1   1   2  1   
  2   1   3  1   
  3   2   4  2   
  4   2   5  1   
  5   3   6  2   
  6   3   7  1   
  7   4   8  1   
  8   5   6  1   
  9   5   9  1   
 10   7  10  1   
 11   7  11  1   
 12   7  21  1   
 13   8   9  2   
 14   9  12  1   
 15  10  13  1   
 16  11  14  1   
 17  11  22  1   
 18  11  23  1   
 19  12  15  1   
 20  12  24  1   
 21  12  25  1   
 22  13  16  ar  
 23  13  17  ar  
 24  14  16  1   
 25  15  26  1   
 26  15  27  1   
 27  15  28  1   
 28  16  18  ar  
 29  17  19  ar  
 30  17  29  1   
 31  18  20  ar  
 32  18  30  1   
 33  19  20  ar  
 34  19  31  1   
 35  20  32  1   
@<TRIPOS>SUBSTRUCTURE
  1 ****   3 GROUP 4 **** **** 0

# MOE 2024.06 (io_trps.svl 2023.06)
