@<TRIPOS>MOLECULE
3-(2-Methoxy-ethyl)-8-(2-methoxy-5-methyl-phenyl)-1,7-dimethyl-1H,8H-imidazo[2,1
53 56 1 0 0 
SMALL
USER_CHARGES


@<TRIPOS>ATOM
  1 O        0.7620    -0.3040     0.4030 O.2   1 <1>  -0.5740 
  2 C        1.7180     0.4140     0.2000 C.2   1 <1>   0.6870 
  3 N        1.5370     1.6830    -0.3410 N.am  1 <1>  -0.4250 
  4 N        2.9960    -0.0340     0.5170 N.am  1 <1>  -0.4410 
  5 C        2.6090     2.5410    -0.5410 C.2   1 <1>   0.7000 
  6 C        0.1570     2.1250    -0.7230 C.3   1 <1>   0.1330 
  7 C        4.0610     0.8100     0.2760 C.2   1 <1>   0.4210 
  8 C        3.2060    -1.3970     1.0910 C.3   1 <1>   0.0530 
  9 O        2.4420     3.6730    -0.9630 O.2   1 <1>  -0.5740 
 10 C        3.9130     2.0590    -0.2300 C.2   1 <1>   0.2710 
 11 C       -0.5670     2.7340     0.4780 C.3   1 <1>   0.1130 
 12 N        5.3870     0.5620     0.4780 N.pl3 1 <1>  -0.7030 
 13 N        5.2050     2.5950    -0.3400 N.pl3 1 <1>  -0.6330 
 14 O       -1.8100     3.1800     0.0480 O.3   1 <1>  -0.5640 
 15 C        6.0420     1.6590     0.0860 C.cat 1 <1>   1.0690 
 16 C        5.9780     3.6530    -0.7750 C.2   1 <1>   0.2230 
 17 C       -2.5880     3.7360     1.0570 C.3   1 <1>   0.0320 
 18 N        7.3190     2.0470    -0.0050 N.pl3 1 <1>  -0.5550 
 19 C        7.2710     3.3150    -0.5750 C.2   1 <1>   0.1580 
 20 C        8.4400     1.2430     0.3110 C.ar  1 <1>   0.3050 
 21 C        8.5250     4.1060    -0.9060 C.3   1 <1>  -0.1090 
 22 C        8.6140    -0.0210    -0.2670 C.ar  1 <1>   0.0750 
 23 C        9.3750     1.7070     1.2250 C.ar  1 <1>  -0.1570 
 24 O        7.6640    -0.4690    -1.1390 O.3   1 <1>  -0.3680 
 25 C        9.7310    -0.7800     0.0680 C.ar  1 <1>  -0.1570 
 26 C       10.4830     0.9480     1.5590 C.ar  1 <1>  -0.1500 
 27 C        7.9360    -1.5450    -2.0160 C.3   1 <1>   0.0320 
 28 C       10.6560    -0.2940     0.9740 C.ar  1 <1>  -0.1570 
 29 C       11.5060     1.4650     2.5550 C.3   1 <1>  -0.1040 
 30 H       -0.4080     1.2830    -1.0860 H     1 <1>   0.0730 
 31 H        0.2070     2.8550    -1.5120 H     1 <1>   0.0730 
 32 H        2.3200    -1.7330     1.6010 H     1 <1>   0.0730 
 33 H        4.0140    -1.3860     1.8010 H     1 <1>   0.0730 
 34 H        3.4310    -2.0920     0.3000 H     1 <1>   0.0730 
 35 H       -0.0200     3.5770     0.8630 H     1 <1>   0.0730 
 36 H       -0.7150     1.9920     1.2440 H     1 <1>   0.0730 
 37 H        5.8590    -0.3060     0.7270 H     1 <1>   0.4450 
 38 H        5.5490     4.5500    -1.1970 H     1 <1>   0.1430 
 39 H       -3.5240     4.0460     0.6250 H     1 <1>   0.0730 
 40 H       -2.0790     4.5900     1.4690 H     1 <1>   0.0730 
 41 H       -2.7680     2.9950     1.8170 H     1 <1>   0.0730 
 42 H        9.1720     3.5250    -1.5380 H     1 <1>   0.0730 
 43 H        9.0560     4.3630    -0.0070 H     1 <1>   0.0730 
 44 H        8.2700     5.0150    -1.4210 H     1 <1>   0.0730 
 45 H        9.2380     2.6700     1.6830 H     1 <1>   0.1430 
 46 H        9.9030    -1.7520    -0.3560 H     1 <1>   0.1430 
 47 H        7.1160    -1.6360    -2.7050 H     1 <1>   0.0730 
 48 H        8.0320    -2.4520    -1.4450 H     1 <1>   0.0730 
 49 H        8.8430    -1.3380    -2.5570 H     1 <1>   0.0730 
 50 H       11.5180    -0.8900     1.2250 H     1 <1>   0.1430 
 51 H       11.0850     2.2360     3.1750 H     1 <1>   0.0730 
 52 H       12.3550     1.8680     2.0320 H     1 <1>   0.0730 
 53 H       11.8420     0.6660     3.1930 H     1 <1>   0.0730 
@<TRIPOS>BOND
  1   1   2  2   
  2   2   3  am  
  3   2   4  am  
  4   3   5  am  
  5   3   6  1   
  6   4   7  1   
  7   4   8  1   
  8   5   9  2   
  9   5  10  1   
 10   6  11  1   
 11   6  30  1   
 12   6  31  1   
 13   7  10  2   
 14   7  12  1   
 15   8  32  1   
 16   8  33  1   
 17   8  34  1   
 18  10  13  1   
 19  11  14  1   
 20  11  35  1   
 21  11  36  1   
 22  12  15  ar  
 23  12  37  1   
 24  13  15  ar  
 25  13  16  1   
 26  14  17  1   
 27  15  18  ar  
 28  16  19  2   
 29  16  38  1   
 30  17  39  1   
 31  17  40  1   
 32  17  41  1   
 33  18  19  1   
 34  18  20  1   
 35  19  21  1   
 36  20  22  ar  
 37  20  23  ar  
 38  21  42  1   
 39  21  43  1   
 40  21  44  1   
 41  22  24  1   
 42  22  25  ar  
 43  23  26  ar  
 44  23  45  1   
 45  24  27  1   
 46  25  28  ar  
 47  25  46  1   
 48  26  28  ar  
 49  26  29  1   
 50  27  47  1   
 51  27  48  1   
 52  27  49  1   
 53  28  50  1   
 54  29  51  1   
 55  29  52  1   
 56  29  53  1   
@<TRIPOS>SUBSTRUCTURE
  1 ****  15 GROUP 4 **** **** 0

# MOE 2024.06 (io_trps.svl 2023.06)
