@<TRIPOS>MOLECULE
N-(5-Methoxy-1-methyl-2-oxo-2,3-dihydro-1H-indol-3-yl)-acetamide
31 32 1 0 0 
SMALL
USER_CHARGES


@<TRIPOS>ATOM
  1 O       -0.3230    -0.1710    -0.0060 O.2   1 <1>  -0.5700 
  2 C       -1.4410     0.2870     0.0870 C.2   1 <1>   0.5690 
  3 N       -2.5770    -0.4300     0.3430 N.am  1 <1>  -0.4770 
  4 C       -1.7930     1.7710    -0.1160 C.3   1 <1>   0.4250 
  5 C       -3.6870     0.4120     0.3130 C.ar  1 <1>   0.1170 
  6 C       -2.6290    -1.8890     0.5950 C.3   1 <1>   0.0600 
  7 N       -1.2450     2.6970     0.9070 N.am  1 <1>  -0.7300 
  8 C       -3.3020     1.7130     0.0480 C.ar  1 <1>  -0.1430 
  9 C       -5.0250     0.1060     0.5050 C.ar  1 <1>  -0.1500 
 10 C       -0.0320     3.2830     0.9370 C.2   1 <1>   0.5690 
 11 C       -4.2310     2.7340    -0.0300 C.ar  1 <1>  -0.1500 
 12 C       -5.9630     1.1220     0.4280 C.ar  1 <1>  -0.1500 
 13 O        0.2600     4.0070     1.8510 O.2   1 <1>  -0.5700 
 14 C        0.9690     3.0540    -0.1690 C.3   1 <1>  -0.1790 
 15 C       -5.5790     2.4320     0.1640 C.ar  1 <1>   0.0830 
 16 O       -6.5720     3.3570     0.1130 O.3   1 <1>  -0.3630 
 17 C       -6.2870     4.7220    -0.1000 C.3   1 <1>   0.0400 
 18 H       -1.5250     2.0840    -1.1080 H     1 <1>   0.0800 
 19 H       -1.6350    -2.3030     0.5690 H     1 <1>   0.0800 
 20 H       -3.2270    -2.3660    -0.1610 H     1 <1>   0.0800 
 21 H       -3.0590    -2.0730     1.5630 H     1 <1>   0.0800 
 22 H       -1.8360     2.8340     1.7280 H     1 <1>   0.3700 
 23 H       -5.3290    -0.9040     0.7110 H     1 <1>   0.1500 
 24 H       -3.8990     3.7350    -0.2340 H     1 <1>   0.1500 
 25 H       -7.0070     0.9090     0.5740 H     1 <1>   0.1500 
 26 H        0.5600     3.3680    -1.1100 H     1 <1>   0.0800 
 27 H        1.2320     2.0130    -0.2140 H     1 <1>   0.0800 
 28 H        1.8580     3.6230     0.0280 H     1 <1>   0.0800 
 29 H       -7.2160     5.2630    -0.0830 H     1 <1>   0.0800 
 30 H       -5.8170     4.8360    -1.0610 H     1 <1>   0.0800 
 31 H       -5.6460     5.0730     0.6890 H     1 <1>   0.0800 
@<TRIPOS>BOND
  1   1   2  2   
  2   2   3  am  
  3   2   4  1   
  4   3   5  1   
  5   3   6  1   
  6   4   7  1   
  7   4   8  1   
  8   4  18  1   
  9   5   8  ar  
 10   5   9  ar  
 11   6  19  1   
 12   6  20  1   
 13   6  21  1   
 14   7  10  am  
 15   7  22  1   
 16   8  11  ar  
 17   9  12  ar  
 18   9  23  1   
 19  10  13  2   
 20  10  14  1   
 21  11  15  ar  
 22  11  24  1   
 23  12  15  ar  
 24  12  25  1   
 25  14  26  1   
 26  14  27  1   
 27  14  28  1   
 28  15  16  1   
 29  16  17  1   
 30  17  29  1   
 31  17  30  1   
 32  17  31  1   
@<TRIPOS>SUBSTRUCTURE
  1 ****   8 GROUP 4 **** **** 0

# MOE 2024.06 (io_trps.svl 2023.06)
