@<TRIPOS>MOLECULE
N-(7,7-Dimethyl-2,5-dioxo-5,6,7,8-tetrahydro-2H-chromen-3-yl)-4-methyl-benzamide
43 45 1 0 0 
SMALL
USER_CHARGES


@<TRIPOS>ATOM
  1 O        0.6900     1.4430     1.9150 O.2   1 <1>  -0.5700 
  2 C        1.6790     1.8450     1.3240 C.2   1 <1>   0.7060 
  3 O        2.8180     1.1580     1.4600 O.3   1 <1>  -0.2270 
  4 C        1.6720     3.0160     0.4790 C.2   1 <1>   0.1230 
  5 C        3.9380     1.4920     0.8230 C.2   1 <1>  -0.0620 
  6 N        0.4500     3.7230     0.3710 N.am  1 <1>  -0.5390 
  7 C        2.8220     3.3580    -0.1660 C.2   1 <1>  -0.1500 
  8 C        4.0100     2.5820     0.0030 C.2   1 <1>   0.0140 
  9 C        5.1160     0.5670     1.0910 C.3   1 <1>  -0.0220 
 10 C        0.1310     4.9570    -0.1430 C.2   1 <1>   0.5440 
 11 C        5.2380     2.9400    -0.6640 C.2   1 <1>   0.4950 
 12 C        6.1930     0.6630    -0.0130 C.3   1 <1>   0.0000 
 13 O        1.0160     5.7000    -0.5120 O.2   1 <1>  -0.5700 
 14 C       -1.2600     5.3720    -0.2050 C.ar  1 <1>   0.0860 
 15 O        5.3380     3.8370    -1.4600 O.2   1 <1>  -0.5700 
 16 C        6.4910     2.1450    -0.3310 C.3   1 <1>  -0.0990 
 17 C        7.4810    -0.0250     0.4640 C.3   1 <1>  -0.2400 
 18 C        5.7070    -0.0570    -1.2860 C.3   1 <1>  -0.2400 
 19 C       -1.6060     6.7220    -0.1460 C.ar  1 <1>  -0.1500 
 20 C       -2.3050     4.4530    -0.3250 C.ar  1 <1>  -0.1500 
 21 C       -2.9250     7.1360    -0.1870 C.ar  1 <1>  -0.1500 
 22 C       -3.6260     4.8610    -0.3640 C.ar  1 <1>  -0.1500 
 23 C       -3.9450     6.2060    -0.2920 C.ar  1 <1>  -0.1430 
 24 C       -5.3930     6.6580    -0.3370 C.3   1 <1>  -0.0970 
 25 H       -0.3210     3.2580     0.8590 H     1 <1>   0.3700 
 26 H        2.8820     4.2110    -0.8200 H     1 <1>   0.1500 
 27 H        4.7670    -0.4490     1.1640 H     1 <1>   0.0800 
 28 H        5.5380     0.8330     2.0440 H     1 <1>   0.0800 
 29 H        6.9580     2.6140     0.5150 H     1 <1>   0.0800 
 30 H        7.1750     2.2120    -1.1580 H     1 <1>   0.0800 
 31 H        7.8650     0.4510     1.3490 H     1 <1>   0.0800 
 32 H        8.2390     0.0210    -0.2980 H     1 <1>   0.0800 
 33 H        7.2950    -1.0610     0.6920 H     1 <1>   0.0800 
 34 H        4.7930     0.3690    -1.6580 H     1 <1>   0.0800 
 35 H        5.5300    -1.1000    -1.0860 H     1 <1>   0.0800 
 36 H        6.4470     0.0120    -2.0640 H     1 <1>   0.0800 
 37 H       -0.8230     7.4570    -0.0670 H     1 <1>   0.1500 
 38 H       -2.0910     3.4010    -0.3970 H     1 <1>   0.1500 
 39 H       -3.1540     8.1860    -0.1380 H     1 <1>   0.1500 
 40 H       -4.4080     4.1280    -0.4560 H     1 <1>   0.1500 
 41 H       -5.5240     7.5600     0.2330 H     1 <1>   0.0800 
 42 H       -6.0370     5.9020     0.0750 H     1 <1>   0.0800 
 43 H       -5.6840     6.8450    -1.3550 H     1 <1>   0.0800 
@<TRIPOS>BOND
  1   1   2  2   
  2   2   3  1   
  3   2   4  1   
  4   3   5  1   
  5   4   6  1   
  6   4   7  2   
  7   5   8  2   
  8   5   9  1   
  9   6  10  am  
 10   6  25  1   
 11   7   8  1   
 12   7  26  1   
 13   8  11  1   
 14   9  12  1   
 15   9  27  1   
 16   9  28  1   
 17  10  13  2   
 18  10  14  1   
 19  11  15  2   
 20  11  16  1   
 21  12  16  1   
 22  12  17  1   
 23  12  18  1   
 24  14  19  ar  
 25  14  20  ar  
 26  16  29  1   
 27  16  30  1   
 28  17  31  1   
 29  17  32  1   
 30  17  33  1   
 31  18  34  1   
 32  18  35  1   
 33  18  36  1   
 34  19  21  ar  
 35  19  37  1   
 36  20  22  ar  
 37  20  38  1   
 38  21  23  ar  
 39  21  39  1   
 40  22  23  ar  
 41  22  40  1   
 42  23  24  1   
 43  24  41  1   
 44  24  42  1   
 45  24  43  1   
@<TRIPOS>SUBSTRUCTURE
  1 ****   4 GROUP 4 **** **** 0

# MOE 2024.06 (io_trps.svl 2023.06)
