@<TRIPOS>MOLECULE
2-Morpholin-4-yl-propylamine
27 27 1 0 0 
SMALL
USER_CHARGES


@<TRIPOS>ATOM
  1 O        0.1510     0.1810    -0.4260 O.3   1 <1>  -0.5600 
  2 C       -0.1740     1.3950     0.1800 C.3   1 <1>   0.1200 
  3 C        1.4190    -0.2780    -0.0760 C.3   1 <1>   0.1200 
  4 C        0.8400     2.4830    -0.2180 C.3   1 <1>   0.1100 
  5 C        2.4860     0.7460    -0.5040 C.3   1 <1>   0.1100 
  6 N        2.2460     2.0920     0.0900 N.3   1 <1>  -0.8100 
  7 C        3.2680     3.0780    -0.3310 C.3   1 <1>   0.1900 
  8 C        4.6150     2.6940     0.3310 C.3   1 <1>   0.3430 
  9 C        2.8660     4.5100     0.0740 C.3   1 <1>  -0.2400 
 10 N        5.7270     3.6450     0.0300 N.4   1 <1>  -0.8530 
 11 H       -0.1860     1.2580     1.2470 H     1 <1>   0.0800 
 12 H       -1.1620     1.6680    -0.1460 H     1 <1>   0.0800 
 13 H        1.5760    -1.2160    -0.5780 H     1 <1>   0.0800 
 14 H        1.4480    -0.4420     0.9870 H     1 <1>   0.0800 
 15 H        0.5730     3.3710     0.3270 H     1 <1>   0.0800 
 16 H        0.7340     2.6860    -1.2710 H     1 <1>   0.0800 
 17 H        2.4770     0.8100    -1.5790 H     1 <1>   0.0800 
 18 H        3.4410     0.3620    -0.1970 H     1 <1>   0.0800 
 19 H        3.3670     3.0330    -1.4030 H     1 <1>   0.0800 
 20 H        4.8960     1.7090    -0.0020 H     1 <1>   0.0800 
 21 H        4.4590     2.6520     1.3970 H     1 <1>   0.0800 
 22 H        2.6500     4.5580     1.1280 H     1 <1>   0.0800 
 23 H        2.0010     4.8330    -0.4760 H     1 <1>   0.0800 
 24 H        3.6370     5.2210    -0.1530 H     1 <1>   0.0800 
 25 H        5.8990     3.7090    -0.9800 H     1 <1>   0.4500 
 26 H        6.5970     3.3470     0.4880 H     1 <1>   0.4500 
 27 H        5.4940     4.5820     0.3780 H     1 <1>   0.4500 
@<TRIPOS>BOND
  1   1   2  1   
  2   1   3  1   
  3   2   4  1   
  4   2  11  1   
  5   2  12  1   
  6   3   5  1   
  7   3  13  1   
  8   3  14  1   
  9   4   6  1   
 10   4  15  1   
 11   4  16  1   
 12   5   6  1   
 13   5  17  1   
 14   5  18  1   
 15   6   7  1   
 16   7   8  1   
 17   7   9  1   
 18   7  19  1   
 19   8  10  1   
 20   8  20  1   
 21   8  21  1   
 22   9  22  1   
 23   9  23  1   
 24   9  24  1   
 25  10  25  1   
 26  10  26  1   
 27  10  27  1   
@<TRIPOS>SUBSTRUCTURE
  1 ****   6 GROUP 4 **** **** 0

# MOE 2024.06 (io_trps.svl 2023.06)
