@<TRIPOS>MOLECULE
1-(3-Benzoyl-imidazolidin-1-yl)-2-pyrrolidin-1-yl-ethanone
43 45 1 0 0 
SMALL
USER_CHARGES


@<TRIPOS>ATOM
  1 O        0.5520    -0.4170    -0.9500 O.2   1 <1>  -0.5700 
  2 C        1.4650    -0.9000    -0.3130 C.2   1 <1>   0.5440 
  3 N        2.4530    -0.0690     0.1550 N.am  1 <1>  -0.6600 
  4 C        1.5200    -2.3310    -0.0830 C.ar  1 <1>   0.0860 
  5 C        3.7850    -0.5430     0.5320 C.3   1 <1>   0.4400 
  6 C        2.4550     1.3900    -0.1020 C.3   1 <1>   0.1400 
  7 C        1.6510    -2.8590     1.2010 C.ar  1 <1>  -0.1500 
  8 C        1.4610    -3.2260    -1.1490 C.ar  1 <1>  -0.1500 
  9 N        4.6790     0.5730     0.1810 N.am  1 <1>  -0.6600 
 10 C        3.8970     1.8320     0.1090 C.3   1 <1>   0.1400 
 11 C        1.7480    -4.2230     1.4100 C.ar  1 <1>  -0.1500 
 12 C        1.5570    -4.5910    -0.9480 C.ar  1 <1>  -0.1500 
 13 C        5.9500     0.4740    -0.3090 C.2   1 <1>   0.5690 
 14 C        1.7060    -5.0910     0.3330 C.ar  1 <1>  -0.1500 
 15 O        6.5640     1.4500    -0.6770 O.2   1 <1>  -0.5700 
 16 C        6.6760    -0.8820    -0.4100 C.3   1 <1>   0.4040 
 17 N        8.1770    -0.7480    -0.5240 N.4   1 <1>  -0.9590 
 18 C        8.9040    -1.9760    -0.9130 C.3   1 <1>   0.3430 
 19 C        8.8210    -0.2330     0.7070 C.3   1 <1>   0.3430 
 20 C       10.3460    -1.7020    -0.5070 C.3   1 <1>  -0.1600 
 21 C       10.2950    -0.5630     0.5180 C.3   1 <1>  -0.1600 
 22 H        4.0350    -1.4380    -0.0130 H     1 <1>   0.0800 
 23 H        3.8180    -0.7260     1.5930 H     1 <1>   0.0800 
 24 H        1.7880     1.8950     0.5760 H     1 <1>   0.0800 
 25 H        2.1450     1.5880    -1.1140 H     1 <1>   0.0800 
 26 H        1.6660    -2.1910     2.0450 H     1 <1>   0.1500 
 27 H        1.3310    -2.8390    -2.1460 H     1 <1>   0.1500 
 28 H        3.9890     2.3740     1.0340 H     1 <1>   0.0800 
 29 H        4.2270     2.4590    -0.7030 H     1 <1>   0.0800 
 30 H        1.8470    -4.6140     2.4090 H     1 <1>   0.1500 
 31 H        1.5100    -5.2660    -1.7860 H     1 <1>   0.1500 
 32 H        1.7790    -6.1540     0.4930 H     1 <1>   0.1500 
 33 H        6.2990    -1.3860    -1.2830 H     1 <1>   0.0800 
 34 H        6.4310    -1.4740     0.4540 H     1 <1>   0.0800 
 35 H        8.3410    -0.0180    -1.2380 H     1 <1>   0.4500 
 36 H        8.8180    -2.1740    -1.9700 H     1 <1>   0.0800 
 37 H        8.5280    -2.8190    -0.3550 H     1 <1>   0.0800 
 38 H        8.4420    -0.7570     1.5700 H     1 <1>   0.0800 
 39 H        8.6590     0.8280     0.8270 H     1 <1>   0.0800 
 40 H       10.9180    -1.4040    -1.3700 H     1 <1>   0.0800 
 41 H       10.7930    -2.5900    -0.0940 H     1 <1>   0.0800 
 42 H       10.7420    -0.8450     1.4550 H     1 <1>   0.0800 
 43 H       10.8120     0.3030     0.1410 H     1 <1>   0.0800 
@<TRIPOS>BOND
  1   1   2  2   
  2   2   3  am  
  3   2   4  1   
  4   3   5  1   
  5   3   6  1   
  6   4   7  ar  
  7   4   8  ar  
  8   5   9  1   
  9   5  22  1   
 10   5  23  1   
 11   6  10  1   
 12   6  24  1   
 13   6  25  1   
 14   7  11  ar  
 15   7  26  1   
 16   8  12  ar  
 17   8  27  1   
 18   9  10  1   
 19   9  13  am  
 20  10  28  1   
 21  10  29  1   
 22  11  14  ar  
 23  11  30  1   
 24  12  14  ar  
 25  12  31  1   
 26  13  15  2   
 27  13  16  1   
 28  14  32  1   
 29  16  17  1   
 30  16  33  1   
 31  16  34  1   
 32  17  18  1   
 33  17  19  1   
 34  17  35  1   
 35  18  20  1   
 36  18  36  1   
 37  18  37  1   
 38  19  21  1   
 39  19  38  1   
 40  19  39  1   
 41  20  21  1   
 42  20  40  1   
 43  20  41  1   
 44  21  42  1   
 45  21  43  1   
@<TRIPOS>SUBSTRUCTURE
  1 ****   5 GROUP 4 **** **** 0

# MOE 2024.06 (io_trps.svl 2023.06)
