@<TRIPOS>MOLECULE
N-[4-(4-Butyryl-3-oxo-5-thiophen-2-yl-cyclohex-1-enyl)-phenyl]-methanesulfonamid
51 53 1 0 0 
SMALL
USER_CHARGES


@<TRIPOS>ATOM
  1 S       -0.0170    -0.0400     0.9140 S.o2  1 <1>   1.3330 
  2 O        0.5630     0.4490     2.1390 O.2   1 <1>  -0.6500 
  3 O       -1.3010    -0.6890     0.8910 O.2   1 <1>  -0.6500 
  4 N        1.0480    -1.2040     0.2410 N.am  1 <1>  -0.7570 
  5 C       -0.0010     1.2390    -0.3230 C.3   1 <1>  -0.1350 
  6 C        2.4310    -1.2180     0.1620 C.ar  1 <1>   0.1990 
  7 C        3.2380    -0.1900     0.6420 C.ar  1 <1>  -0.1500 
  8 C        3.0600    -2.3070    -0.4300 C.ar  1 <1>  -0.1500 
  9 C        4.6130    -0.2530     0.5320 C.ar  1 <1>  -0.1500 
 10 C        4.4350    -2.3680    -0.5420 C.ar  1 <1>  -0.1500 
 11 C        5.2520    -1.3420    -0.0620 C.ar  1 <1>   0.0280 
 12 C        6.6870    -1.3900    -0.1620 C.2   1 <1>  -0.1670 
 13 C        7.4790    -0.3240    -0.4330 C.2   1 <1>  -0.1360 
 14 C        7.3570    -2.7450     0.0410 C.3   1 <1>  -0.0220 
 15 C        8.9010    -0.3470    -0.5330 C.2   1 <1>   0.4950 
 16 C        8.7540    -2.5960     0.6670 C.3   1 <1>   0.1000 
 17 O        9.5250     0.5720    -1.0010 O.2   1 <1>  -0.5700 
 18 C        9.6460    -1.5980    -0.1030 C.3   1 <1>   0.0420 
 19 C        9.4420    -3.9540     0.7650 C.2   1 <1>  -0.1400 
 20 C       10.8300    -1.1840     0.7530 C.2   1 <1>   0.4480 
 21 S       10.5110    -4.2130     2.1380 S.3   1 <1>  -0.0800 
 22 C        9.4080    -5.0560    -0.0100 C.2   1 <1>  -0.1500 
 23 O       10.6720    -0.6700     1.8210 O.2   1 <1>  -0.5700 
 24 C       12.2270    -1.4800     0.2280 C.3   1 <1>  -0.0990 
 25 C       10.8870    -5.8390     1.6030 C.2   1 <1>  -0.1100 
 26 C       10.2300    -6.1270     0.4660 C.2   1 <1>  -0.1500 
 27 C       12.6240    -0.5660    -0.9420 C.3   1 <1>  -0.1600 
 28 C       14.0480    -0.8630    -1.4200 C.3   1 <1>  -0.2400 
 29 H        0.5310    -2.0530     0.0290 H     1 <1>   0.4200 
 30 H       -0.6650     2.0310    -0.0390 H     1 <1>   0.0800 
 31 H       -0.3200     0.8440    -1.2680 H     1 <1>   0.0800 
 32 H        0.9870     1.6410    -0.4310 H     1 <1>   0.0800 
 33 H        2.8000     0.6660     1.1180 H     1 <1>   0.1500 
 34 H        2.4620    -3.1150    -0.8100 H     1 <1>   0.1500 
 35 H        5.2060     0.5530     0.9250 H     1 <1>   0.1500 
 36 H        4.8810    -3.2230    -1.0150 H     1 <1>   0.1500 
 37 H        7.0510     0.6440    -0.6160 H     1 <1>   0.1500 
 38 H        7.4230    -3.2430    -0.9100 H     1 <1>   0.0800 
 39 H        6.7600    -3.3540     0.6990 H     1 <1>   0.0800 
 40 H        8.6000    -2.2230     1.6670 H     1 <1>   0.0800 
 41 H       10.0010    -2.0750    -0.9970 H     1 <1>   0.0800 
 42 H        8.8380    -5.1800    -0.9130 H     1 <1>   0.1500 
 43 H       12.2780    -2.5110    -0.0720 H     1 <1>   0.0800 
 44 H       12.9230    -1.3410     1.0360 H     1 <1>   0.0800 
 45 H       11.5680    -6.4140     2.2070 H     1 <1>   0.1500 
 46 H       10.2860    -7.0600    -0.0670 H     1 <1>   0.1500 
 47 H       12.5600     0.4620    -0.6260 H     1 <1>   0.0800 
 48 H       11.9420    -0.6980    -1.7640 H     1 <1>   0.0800 
 49 H       14.7530    -0.7050    -0.6220 H     1 <1>   0.0800 
 50 H       14.3050    -0.2080    -2.2340 H     1 <1>   0.0800 
 51 H       14.1300    -1.8800    -1.7600 H     1 <1>   0.0800 
@<TRIPOS>BOND
  1   1   2  2   
  2   1   3  2   
  3   1   4  am  
  4   1   5  1   
  5   4   6  1   
  6   4  29  1   
  7   5  30  1   
  8   5  31  1   
  9   5  32  1   
 10   6   7  ar  
 11   6   8  ar  
 12   7   9  ar  
 13   7  33  1   
 14   8  10  ar  
 15   8  34  1   
 16   9  11  ar  
 17   9  35  1   
 18  10  11  ar  
 19  10  36  1   
 20  11  12  1   
 21  12  13  2   
 22  12  14  1   
 23  13  15  1   
 24  13  37  1   
 25  14  16  1   
 26  14  38  1   
 27  14  39  1   
 28  15  17  2   
 29  15  18  1   
 30  16  18  1   
 31  16  19  1   
 32  16  40  1   
 33  18  20  1   
 34  18  41  1   
 35  19  21  1   
 36  19  22  2   
 37  20  23  2   
 38  20  24  1   
 39  21  25  1   
 40  22  26  1   
 41  22  42  1   
 42  24  27  1   
 43  24  43  1   
 44  24  44  1   
 45  25  26  2   
 46  25  45  1   
 47  26  46  1   
 48  27  28  1   
 49  27  47  1   
 50  27  48  1   
 51  28  49  1   
 52  28  50  1   
 53  28  51  1   
@<TRIPOS>SUBSTRUCTURE
  1 ****  12 GROUP 4 **** **** 0

# MOE 2024.06 (io_trps.svl 2023.06)
