@<TRIPOS>MOLECULE
2-(3-Methoxy-phenyl)-7-p-tolyl-tetrahydro-2,3b,6a-triaza-cyclopenta[a]pentalene-
51 55 1 0 0 
SMALL
USER_CHARGES


@<TRIPOS>ATOM
  1 O        0.0620     0.6950    -1.0310 O.2   1 <1>  -0.5700 
  2 C        0.0820     1.7590    -0.4610 C.2   1 <1>   0.5690 
  3 N        1.1870     2.4380     0.0140 N.am  1 <1>  -0.2370 
  4 C       -1.1470     2.5470    -0.0440 C.3   1 <1>   0.2510 
  5 C        2.5140     1.9480     0.0660 C.ar  1 <1>   0.1170 
  6 C        0.7670     3.6710     0.4750 C.2   1 <1>   0.5690 
  7 N       -2.4320     2.7430    -0.7060 N.3   1 <1>  -0.5400 
  8 C       -0.6020     3.9410    -0.0620 C.3   1 <1>  -0.0190 
  9 C        3.5920     2.7880    -0.1900 C.ar  1 <1>  -0.1500 
 10 C        2.7760     0.6160     0.3750 C.ar  1 <1>  -0.1500 
 11 O        1.3500     4.4150     1.2210 O.2   1 <1>  -0.5700 
 12 N       -2.9110     4.0050    -0.1240 N.3   1 <1>  -0.5400 
 13 C       -3.4170     1.7010    -0.4070 C.3   1 <1>   0.1100 
 14 C       -1.7630     4.6840     0.5490 C.3   1 <1>   0.3330 
 15 C        4.8940     2.3220    -0.1440 C.ar  1 <1>   0.0830 
 16 C        4.0740     0.1400     0.4240 C.ar  1 <1>  -0.1500 
 17 C       -4.0360     3.7020     0.7500 C.3   1 <1>   0.1100 
 18 C       -4.6270     2.4440     0.1410 C.3   1 <1>  -0.1600 
 19 C       -1.6930     6.1850     0.2780 C.ar  1 <1>  -0.1430 
 20 O        5.8750     3.2220    -0.4120 O.3   1 <1>  -0.3630 
 21 C        5.1360     0.9870     0.1660 C.ar  1 <1>  -0.1500 
 22 C       -2.3970     6.7860    -0.7570 C.ar  1 <1>  -0.1500 
 23 C       -0.8890     6.9760     1.0850 C.ar  1 <1>  -0.1500 
 24 C        7.2370     2.8610    -0.3570 C.3   1 <1>   0.0400 
 25 C       -2.3050     8.1500    -0.9720 C.ar  1 <1>  -0.1500 
 26 C       -0.7970     8.3400     0.8690 C.ar  1 <1>  -0.1500 
 27 C       -1.5070     8.9360    -0.1590 C.ar  1 <1>  -0.1430 
 28 C       -1.4040    10.4310    -0.3960 C.3   1 <1>  -0.0970 
 29 H       -1.3420     2.2610     0.9770 H     1 <1>   0.0800 
 30 H       -0.4800     4.2770    -1.0780 H     1 <1>   0.0800 
 31 H        3.4290     3.8240    -0.4270 H     1 <1>   0.1500 
 32 H        1.9640    -0.0600     0.5740 H     1 <1>   0.1500 
 33 H       -3.0390     1.0110     0.3270 H     1 <1>   0.0800 
 34 H       -3.6650     1.1620    -1.3050 H     1 <1>   0.0800 
 35 H       -1.7900     4.5040     1.6100 H     1 <1>   0.0800 
 36 H        4.2570    -0.8940     0.6630 H     1 <1>   0.1500 
 37 H       -4.7370     4.5180     0.7630 H     1 <1>   0.0800 
 38 H       -3.6950     3.4930     1.7490 H     1 <1>   0.0800 
 39 H       -5.1770     1.8610     0.8550 H     1 <1>   0.0800 
 40 H       -5.2790     2.7140    -0.6710 H     1 <1>   0.0800 
 41 H        6.1330     0.5940     0.2090 H     1 <1>   0.1500 
 42 H       -3.0220     6.1950    -1.4060 H     1 <1>   0.1500 
 43 H       -0.3210     6.5350     1.8870 H     1 <1>   0.1500 
 44 H        7.8220     3.7320    -0.5900 H     1 <1>   0.0800 
 45 H        7.4250     2.0900    -1.0830 H     1 <1>   0.0800 
 46 H        7.4680     2.5220     0.6380 H     1 <1>   0.0800 
 47 H       -2.8600     8.5950    -1.7800 H     1 <1>   0.1500 
 48 H       -0.1650     8.9340     1.5060 H     1 <1>   0.1500 
 49 H       -2.3120    10.8050    -0.8340 H     1 <1>   0.0800 
 50 H       -0.5860    10.6380    -1.0620 H     1 <1>   0.0800 
 51 H       -1.2380    10.9470     0.5320 H     1 <1>   0.0800 
@<TRIPOS>BOND
  1   1   2  2   
  2   2   3  am  
  3   2   4  1   
  4   3   5  1   
  5   3   6  am  
  6   4   7  1   
  7   4   8  1   
  8   4  29  1   
  9   5   9  ar  
 10   5  10  ar  
 11   6   8  1   
 12   6  11  2   
 13   7  12  1   
 14   7  13  1   
 15   8  14  1   
 16   8  30  1   
 17   9  15  ar  
 18   9  31  1   
 19  10  16  ar  
 20  10  32  1   
 21  12  14  1   
 22  12  17  1   
 23  13  18  1   
 24  13  33  1   
 25  13  34  1   
 26  14  19  1   
 27  14  35  1   
 28  15  20  1   
 29  15  21  ar  
 30  16  21  ar  
 31  16  36  1   
 32  17  18  1   
 33  17  37  1   
 34  17  38  1   
 35  18  39  1   
 36  18  40  1   
 37  19  22  ar  
 38  19  23  ar  
 39  20  24  1   
 40  21  41  1   
 41  22  25  ar  
 42  22  42  1   
 43  23  26  ar  
 44  23  43  1   
 45  24  44  1   
 46  24  45  1   
 47  24  46  1   
 48  25  27  ar  
 49  25  47  1   
 50  26  27  ar  
 51  26  48  1   
 52  27  28  1   
 53  28  49  1   
 54  28  50  1   
 55  28  51  1   
@<TRIPOS>SUBSTRUCTURE
  1 ****   6 GROUP 4 **** **** 0

# MOE 2024.06 (io_trps.svl 2023.06)
