@<TRIPOS>MOLECULE
[4-(2-Chloro-6-methyl-pyrimidin-4-ylsulfanyl)-6-morpholin-4-yl-[1,3,5]triazin-2-
42 44 1 0 0 
SMALL
USER_CHARGES


@<TRIPOS>ATOM
  1 CL      -0.8420    -1.1400     2.6460 Cl    1 <1>  -0.1770 
  2 C       -0.3440    -2.3600     1.5150 C.ar  1 <1>   0.7970 
  3 N        0.8800    -2.8200     1.6860 N.ar  1 <1>  -0.6200 
  4 N       -1.2500    -2.6940     0.6080 N.ar  1 <1>  -0.6200 
  5 C        1.2110    -3.7470     0.8210 C.ar  1 <1>   0.4120 
  6 C       -0.8700    -3.6120    -0.2510 C.ar  1 <1>   0.1670 
  7 S        2.8610    -4.4120     1.0070 S.3   1 <1>  -0.2030 
  8 C        0.3800    -4.1760    -0.1890 C.ar  1 <1>  -0.1500 
  9 C       -1.8690    -4.0220    -1.3110 C.3   1 <1>  -0.0960 
 10 C        2.7270    -6.1780     0.7880 C.ar  1 <1>   0.7220 
 11 N        3.8530    -6.7930     0.5940 N.ar  1 <1>  -0.6200 
 12 N        1.5350    -6.6870     0.8480 N.ar  1 <1>  -0.6200 
 13 C        3.7160    -8.0900     0.4380 C.ar  1 <1>   0.7200 
 14 C        1.5340    -7.9800     0.6730 C.ar  1 <1>   0.7200 
 15 N        2.5730    -8.7320     0.4620 N.ar  1 <1>  -0.6200 
 16 N        4.8610    -8.8250     0.2300 N.pl3 1 <1>  -0.8380 
 17 N        0.3480    -8.6260     0.6920 N.pl3 1 <1>  -0.8690 
 18 C        6.2420    -8.2490     0.3160 C.3   1 <1>   0.2090 
 19 C        4.8620   -10.3130     0.0540 C.3   1 <1>   0.2090 
 20 C       -0.9560    -8.0860     1.1230 C.3   1 <1>   0.2090 
 21 C        7.1380    -8.7980    -0.8080 C.3   1 <1>   0.1200 
 22 C        5.8450   -10.7360    -1.0530 C.3   1 <1>   0.1200 
 23 C       -1.8550    -7.9770    -0.1000 C.3   1 <1>  -0.2400 
 24 O        7.1190   -10.1980    -0.8300 O.3   1 <1>  -0.5600 
 25 H        0.6970    -4.9190    -0.8950 H     1 <1>   0.1500 
 26 H       -2.1520    -3.1620    -1.8920 H     1 <1>   0.0800 
 27 H       -2.7480    -4.4250    -0.8420 H     1 <1>   0.0800 
 28 H       -1.4540    -4.7640    -1.9680 H     1 <1>   0.0800 
 29 H        0.4130    -9.6340     0.5570 H     1 <1>   0.4000 
 30 H        6.6720    -8.5070     1.2670 H     1 <1>   0.0800 
 31 H        6.2250    -7.1760     0.2440 H     1 <1>   0.0800 
 32 H        3.8840   -10.6760    -0.2050 H     1 <1>   0.0800 
 33 H        5.1520   -10.7770     0.9800 H     1 <1>   0.0800 
 34 H       -0.8360    -7.1170     1.5790 H     1 <1>   0.0800 
 35 H       -1.3940    -8.7480     1.8510 H     1 <1>   0.0800 
 36 H        8.1550    -8.4860    -0.6550 H     1 <1>   0.0800 
 37 H        6.8040    -8.4330    -1.7630 H     1 <1>   0.0800 
 38 H        5.4930   -10.4010    -2.0130 H     1 <1>   0.0800 
 39 H        5.9400   -11.8060    -1.0730 H     1 <1>   0.0800 
 40 H       -1.4110    -7.3190    -0.8240 H     1 <1>   0.0800 
 41 H       -2.8110    -7.5780     0.1880 H     1 <1>   0.0800 
 42 H       -2.0060    -8.9460    -0.5410 H     1 <1>   0.0800 
@<TRIPOS>BOND
  1   1   2  1   
  2   2   3  ar  
  3   2   4  ar  
  4   3   5  ar  
  5   4   6  ar  
  6   5   7  1   
  7   5   8  ar  
  8   6   8  ar  
  9   6   9  1   
 10   7  10  1   
 11   8  25  1   
 12   9  26  1   
 13   9  27  1   
 14   9  28  1   
 15  10  11  ar  
 16  10  12  ar  
 17  11  13  ar  
 18  12  14  ar  
 19  13  15  ar  
 20  13  16  1   
 21  14  15  ar  
 22  14  17  1   
 23  16  18  1   
 24  16  19  1   
 25  17  20  1   
 26  17  29  1   
 27  18  21  1   
 28  18  30  1   
 29  18  31  1   
 30  19  22  1   
 31  19  32  1   
 32  19  33  1   
 33  20  23  1   
 34  20  34  1   
 35  20  35  1   
 36  21  24  1   
 37  21  36  1   
 38  21  37  1   
 39  22  24  1   
 40  22  38  1   
 41  22  39  1   
 42  23  40  1   
 43  23  41  1   
 44  23  42  1   
@<TRIPOS>SUBSTRUCTURE
  1 ****  12 GROUP 4 **** **** 0

# MOE 2024.06 (io_trps.svl 2023.06)
