@<TRIPOS>MOLECULE
(5-Hydroxy-3-methyl-5-trifluoromethyl-4,5-dihydro-pyrazol-1-yl)-thiophen-2-yl-me
27 28 1 0 0 
SMALL
USER_CHARGES


@<TRIPOS>ATOM
  1 S       -1.1490     0.4060    -0.3990 S.3   1 <1>  -0.0800 
  2 C       -1.1680     1.4780     1.0100 C.2   1 <1>  -0.0450 
  3 C        0.2740    -0.4400     0.1670 C.2   1 <1>  -0.1100 
  4 C       -2.1670     2.5120     1.1420 C.2   1 <1>   0.7150 
  5 C       -0.1140     1.1550     1.8040 C.2   1 <1>  -0.1500 
  6 C        0.6920     0.0760     1.3370 C.2   1 <1>  -0.1500 
  7 O       -1.8840     3.5130     1.7700 O.2   1 <1>  -0.5700 
  8 N       -3.4450     2.4030     0.5990 N.am  1 <1>  -0.2980 
  9 N       -4.1090     1.2200     0.3160 N.2   1 <1>  -0.5120 
 10 C       -4.2660     3.5790     0.1700 C.3   1 <1>   0.5800 
 11 C       -5.2760     1.4600    -0.0760 C.2   1 <1>   0.3280 
 12 O       -3.7420     3.8990    -1.0860 O.3   1 <1>  -0.6800 
 13 C       -4.4250     4.8330     1.1390 C.3   1 <1>   1.0200 
 14 C       -5.6300     2.9190    -0.1070 C.3   1 <1>  -0.0990 
 15 C       -6.3050     0.4300    -0.4820 C.3   1 <1>  -0.1790 
 16 F       -4.6360     4.4830     2.4070 F     1 <1>  -0.3400 
 17 F       -3.4070     5.6890     1.1420 F     1 <1>  -0.3400 
 18 F       -5.4870     5.5700     0.8090 F     1 <1>  -0.3400 
 19 H        0.6520    -1.2430    -0.4400 H     1 <1>   0.1500 
 20 H        0.1210     1.6640     2.7240 H     1 <1>   0.1500 
 21 H        1.5460    -0.2620     1.8970 H     1 <1>   0.1500 
 22 H       -3.4090     3.0700    -1.4810 H     1 <1>   0.4000 
 23 H       -6.0500     3.2250    -1.0480 H     1 <1>   0.0800 
 24 H       -6.3330     3.1160     0.6810 H     1 <1>   0.0800 
 25 H       -7.1670     0.4980     0.1560 H     1 <1>   0.0800 
 26 H       -5.8870    -0.5570    -0.3920 H     1 <1>   0.0800 
 27 H       -6.6040     0.5880    -1.5020 H     1 <1>   0.0800 
@<TRIPOS>BOND
  1   1   2  1   
  2   1   3  1   
  3   2   4  1   
  4   2   5  2   
  5   3   6  2   
  6   3  19  1   
  7   4   7  2   
  8   4   8  am  
  9   5   6  1   
 10   5  20  1   
 11   6  21  1   
 12   8   9  1   
 13   8  10  1   
 14   9  11  2   
 15  10  12  1   
 16  10  13  1   
 17  10  14  1   
 18  11  14  1   
 19  11  15  1   
 20  12  22  1   
 21  13  16  1   
 22  13  17  1   
 23  13  18  1   
 24  14  23  1   
 25  14  24  1   
 26  15  25  1   
 27  15  26  1   
 28  15  27  1   
@<TRIPOS>SUBSTRUCTURE
  1 ****   8 GROUP 4 **** **** 0

# MOE 2024.06 (io_trps.svl 2023.06)
