@<TRIPOS>MOLECULE
2,2-Dimethyl-propionic acid 5-amino-1-(4-methoxy-benzenesulfonyl)-1H-pyrazol-3-y
43 44 1 0 0 
SMALL
USER_CHARGES


@<TRIPOS>ATOM
  1 S       -0.1770    -0.8440     0.1620 S.o2  1 <1>   1.2950 
  2 O        0.2370    -1.6630    -0.9670 O.2   1 <1>  -0.6500 
  3 O        0.0710    -1.3540     1.4990 O.2   1 <1>  -0.6500 
  4 N        0.5080     0.7960    -0.0100 N.pl3 1 <1>   0.5840 
  5 C       -1.9540    -0.5180     0.0020 C.ar  1 <1>  -0.0090 
  6 N       -0.0590     1.9620     0.4820 N.2   1 <1>  -0.7070 
  7 C        1.6780     1.0960    -0.6750 C.2   1 <1>  -0.0680 
  8 C       -2.6270    -0.7480    -1.1930 C.ar  1 <1>  -0.1500 
  9 C       -2.6860    -0.0070     1.0700 C.ar  1 <1>  -0.1500 
 10 C        0.7480     2.8990     0.1100 C.2   1 <1>   0.3510 
 11 N        2.5480     0.1910    -1.3120 N.pl3 1 <1>  -0.8840 
 12 C        1.8460     2.4360    -0.6040 C.2   1 <1>  -0.1500 
 13 C       -3.9780    -0.4780    -1.3170 C.ar  1 <1>  -0.1500 
 14 C       -4.0380     0.2660     0.9550 C.ar  1 <1>  -0.1500 
 15 O        0.4880     4.1900     0.4340 O.3   1 <1>  -0.2120 
 16 C       -4.6950     0.0310    -0.2480 C.ar  1 <1>   0.0830 
 17 C        0.7010     5.2300    -0.3630 C.2   1 <1>   0.6590 
 18 O       -6.0130     0.2690    -0.4500 O.3   1 <1>  -0.3630 
 19 O        1.1600     5.1090    -1.4730 O.2   1 <1>  -0.5700 
 20 C        0.3140     6.6070     0.2270 C.3   1 <1>   0.0610 
 21 C       -6.8310     0.7930     0.5730 C.3   1 <1>   0.0400 
 22 C       -1.1880     6.6370     0.5700 C.3   1 <1>  -0.2400 
 23 C        0.5970     7.7540    -0.7660 C.3   1 <1>  -0.2400 
 24 C        1.1180     6.8840     1.5120 C.3   1 <1>  -0.2400 
 25 H       -2.0940    -1.1470    -2.0400 H     1 <1>   0.1500 
 26 H       -2.1890     0.1840     2.0070 H     1 <1>   0.1500 
 27 H        3.1660     0.5770    -2.0370 H     1 <1>   0.4000 
 28 H        2.1560    -0.7220    -1.6070 H     1 <1>   0.4000 
 29 H        2.6430     3.0350    -1.0050 H     1 <1>   0.1500 
 30 H       -4.4890    -0.6610    -2.2460 H     1 <1>   0.1500 
 31 H       -4.5590     0.6610     1.8070 H     1 <1>   0.1500 
 32 H       -7.8270     0.8980     0.1820 H     1 <1>   0.0800 
 33 H       -6.4500     1.7550     0.8660 H     1 <1>   0.0800 
 34 H       -6.8340     0.1090     1.4030 H     1 <1>   0.0800 
 35 H       -1.7760     6.4470    -0.3110 H     1 <1>   0.0800 
 36 H       -1.4710     7.5970     0.9670 H     1 <1>   0.0800 
 37 H       -1.4270     5.8860     1.3030 H     1 <1>   0.0800 
 38 H        0.0370     7.6100    -1.6740 H     1 <1>   0.0800 
 39 H        1.6420     7.7820    -1.0200 H     1 <1>   0.0800 
 40 H        0.3230     8.7050    -0.3450 H     1 <1>   0.0800 
 41 H        0.9130     6.1370     2.2590 H     1 <1>   0.0800 
 42 H        0.8650     7.8470     1.9210 H     1 <1>   0.0800 
 43 H        2.1740     6.8720     1.3020 H     1 <1>   0.0800 
@<TRIPOS>BOND
  1   1   2  2   
  2   1   3  2   
  3   1   4  1   
  4   1   5  1   
  5   4   6  1   
  6   4   7  1   
  7   5   8  ar  
  8   5   9  ar  
  9   6  10  2   
 10   7  11  1   
 11   7  12  2   
 12   8  13  ar  
 13   8  25  1   
 14   9  14  ar  
 15   9  26  1   
 16  10  12  1   
 17  10  15  1   
 18  11  27  1   
 19  11  28  1   
 20  12  29  1   
 21  13  16  ar  
 22  13  30  1   
 23  14  16  ar  
 24  14  31  1   
 25  15  17  1   
 26  16  18  1   
 27  17  19  2   
 28  17  20  1   
 29  18  21  1   
 30  20  22  1   
 31  20  23  1   
 32  20  24  1   
 33  21  32  1   
 34  21  33  1   
 35  21  34  1   
 36  22  35  1   
 37  22  36  1   
 38  22  37  1   
 39  23  38  1   
 40  23  39  1   
 41  23  40  1   
 42  24  41  1   
 43  24  42  1   
 44  24  43  1   
@<TRIPOS>SUBSTRUCTURE
  1 ****   6 GROUP 4 **** **** 0

# MOE 2024.06 (io_trps.svl 2023.06)
