@<TRIPOS>MOLECULE
Benzo[1,3]dioxole-5-carboxylic acid [4-(2-ethyl-piperidine-1-sulfonyl)-phenyl]-a
53 56 1 0 0 
SMALL
USER_CHARGES


@<TRIPOS>ATOM
  1 S        0.0530     0.3460    -1.5910 S.o2  1 <1>   1.4470 
  2 O        1.1830    -0.3200    -2.2050 O.2   1 <1>  -0.6500 
  3 O       -0.5760     1.4320    -2.3130 O.2   1 <1>  -0.6500 
  4 N        0.4960     0.9370    -0.0540 N.am  1 <1>  -0.8490 
  5 C       -1.2420    -0.8730    -1.2290 C.ar  1 <1>  -0.0090 
  6 C        1.4750     0.1850     0.7550 C.3   1 <1>   0.2760 
  7 C        0.7930     2.3740    -0.0300 C.3   1 <1>   0.1960 
  8 C       -2.3050    -0.5630    -0.3890 C.ar  1 <1>  -0.1500 
  9 C       -1.2130    -2.1490    -1.7830 C.ar  1 <1>  -0.1500 
 10 C        2.9220     0.4130     0.2690 C.3   1 <1>  -0.1600 
 11 C        1.1010    -1.3020     0.8970 C.3   1 <1>  -0.1600 
 12 C        2.1810     2.6580    -0.6150 C.3   1 <1>  -0.1600 
 13 C       -3.2910    -1.4900    -0.1020 C.ar  1 <1>  -0.1500 
 14 C       -2.1970    -3.0790    -1.4980 C.ar  1 <1>  -0.1500 
 15 C        3.2670     1.9050     0.1610 C.3   1 <1>  -0.1600 
 16 C        1.8910    -2.0290     1.9970 C.3   1 <1>  -0.2400 
 17 C       -3.2500    -2.7690    -0.6470 C.ar  1 <1>   0.1170 
 18 N       -4.2250    -3.7430    -0.3960 N.am  1 <1>  -0.5470 
 19 C       -5.0630    -3.9350     0.6810 C.2   1 <1>   0.5440 
 20 O       -5.0280    -3.1710     1.6250 O.2   1 <1>  -0.5700 
 21 C       -5.9890    -5.0510     0.6800 C.ar  1 <1>   0.0860 
 22 C       -5.6890    -6.2560     0.0300 C.ar  1 <1>  -0.1500 
 23 C       -7.2260    -4.9500     1.3390 C.ar  1 <1>  -0.1500 
 24 C       -6.6150    -7.2760     0.0450 C.ar  1 <1>   0.0820 
 25 C       -8.1470    -5.9880     1.3480 C.ar  1 <1>  -0.1500 
 26 O       -6.5200    -8.4860    -0.5160 O.3   1 <1>  -0.3630 
 27 C       -7.8130    -7.1500     0.6840 C.ar  1 <1>   0.0820 
 28 C       -7.7320    -9.1760    -0.2100 C.3   1 <1>   0.4000 
 29 O       -8.5240    -8.2700     0.5540 O.3   1 <1>  -0.3620 
 30 H        1.4200     0.5980     1.7490 H     1 <1>   0.0800 
 31 H        0.7640     2.7180     0.9900 H     1 <1>   0.0800 
 32 H        0.0420     2.9280    -0.5680 H     1 <1>   0.0800 
 33 H       -2.3580     0.4200     0.0470 H     1 <1>   0.1500 
 34 H       -0.4050    -2.4150    -2.4440 H     1 <1>   0.1500 
 35 H        3.0770    -0.0650    -0.6790 H     1 <1>   0.0800 
 36 H        3.6080    -0.0400     0.9610 H     1 <1>   0.0800 
 37 H        1.2660    -1.8180    -0.0320 H     1 <1>   0.0800 
 38 H        0.0590    -1.3710     1.1520 H     1 <1>   0.0800 
 39 H        2.3750     3.7150    -0.5690 H     1 <1>   0.0800 
 40 H        2.2020     2.3710    -1.6520 H     1 <1>   0.0800 
 41 H       -4.0980    -1.2100     0.5500 H     1 <1>   0.1500 
 42 H       -2.1390    -4.0570    -1.9390 H     1 <1>   0.1500 
 43 H        4.2190     2.0260    -0.3280 H     1 <1>   0.0800 
 44 H        3.3460     2.3220     1.1500 H     1 <1>   0.0800 
 45 H        2.9350    -2.0920     1.7470 H     1 <1>   0.0800 
 46 H        1.5150    -3.0310     2.1100 H     1 <1>   0.0800 
 47 H        1.7850    -1.5200     2.9390 H     1 <1>   0.0800 
 48 H       -4.3250    -4.4380    -1.1330 H     1 <1>   0.3700 
 49 H       -4.7520    -6.4110    -0.4700 H     1 <1>   0.1500 
 50 H       -7.4630    -4.0340     1.8530 H     1 <1>   0.1500 
 51 H       -9.0930    -5.9030     1.8530 H     1 <1>   0.1500 
 52 H       -7.5130   -10.0490     0.3780 H     1 <1>   0.0800 
 53 H       -8.2460    -9.4270    -1.1210 H     1 <1>   0.0800 
@<TRIPOS>BOND
  1   1   2  2   
  2   1   3  2   
  3   1   4  am  
  4   1   5  1   
  5   4   6  1   
  6   4   7  1   
  7   5   8  ar  
  8   5   9  ar  
  9   6  10  1   
 10   6  11  1   
 11   6  30  1   
 12   7  12  1   
 13   7  31  1   
 14   7  32  1   
 15   8  13  ar  
 16   8  33  1   
 17   9  14  ar  
 18   9  34  1   
 19  10  15  1   
 20  10  35  1   
 21  10  36  1   
 22  11  16  1   
 23  11  37  1   
 24  11  38  1   
 25  12  15  1   
 26  12  39  1   
 27  12  40  1   
 28  13  17  ar  
 29  13  41  1   
 30  14  17  ar  
 31  14  42  1   
 32  15  43  1   
 33  15  44  1   
 34  16  45  1   
 35  16  46  1   
 36  16  47  1   
 37  17  18  1   
 38  18  19  am  
 39  18  48  1   
 40  19  20  2   
 41  19  21  1   
 42  21  22  ar  
 43  21  23  ar  
 44  22  24  ar  
 45  22  49  1   
 46  23  25  ar  
 47  23  50  1   
 48  24  26  1   
 49  24  27  ar  
 50  25  27  ar  
 51  25  51  1   
 52  26  28  1   
 53  27  29  1   
 54  28  29  1   
 55  28  52  1   
 56  28  53  1   
@<TRIPOS>SUBSTRUCTURE
  1 ****  17 GROUP 4 **** **** 0

# MOE 2024.06 (io_trps.svl 2023.06)
