@<TRIPOS>MOLECULE
N-(2,3-Dimethyl-phenyl)-3-[3-(3-ethoxy-4-methoxy-phenyl)-[1,2,4]oxadiazol-5-yl]-
54 56 1 0 0 
SMALL
USER_CHARGES


@<TRIPOS>ATOM
  1 O        0.0280    -0.3060    -0.4250 O.2   1 <1>  -0.5700 
  2 C        0.5710    -1.3770    -0.5290 C.2   1 <1>   0.5690 
  3 N        1.8620    -1.4390    -0.9400 N.am  1 <1>  -0.5470 
  4 C       -0.1830    -2.6500    -0.1840 C.3   1 <1>  -0.0990 
  5 C        2.6890    -2.5550    -1.1070 C.ar  1 <1>   0.1170 
  6 C       -1.4660    -2.3880     0.6200 C.3   1 <1>   0.0200 
  7 C        3.8260    -2.7470    -0.3160 C.ar  1 <1>  -0.1430 
  8 C        2.3730    -3.4800    -2.0930 C.ar  1 <1>  -0.1500 
  9 C       -2.1600    -3.6870     0.9780 C.2   1 <1>   0.2980 
 10 C        4.6340    -3.8620    -0.5350 C.ar  1 <1>  -0.1430 
 11 C        4.1740    -1.7350     0.7790 C.3   1 <1>  -0.0960 
 12 C        3.1670    -4.5890    -2.2980 C.ar  1 <1>  -0.1500 
 13 O       -1.6180    -4.4610     1.8810 O.3   1 <1>  -0.0190 
 14 N       -3.2410    -4.1120     0.4720 N.2   1 <1>  -0.5650 
 15 C        4.2930    -4.7770    -1.5210 C.ar  1 <1>  -0.1500 
 16 C        5.8990    -4.1230     0.2720 C.3   1 <1>  -0.0970 
 17 N       -2.4280    -5.4710     1.9560 N.2   1 <1>  -0.4100 
 18 C       -3.3900    -5.2690     1.1260 C.2   1 <1>   0.4620 
 19 C       -4.5130    -6.1630     0.8980 C.ar  1 <1>   0.0540 
 20 C       -5.5170    -5.8640    -0.0230 C.ar  1 <1>  -0.1500 
 21 C       -4.6370    -7.3640     1.5960 C.ar  1 <1>  -0.1500 
 22 C       -6.5930    -6.7050    -0.2460 C.ar  1 <1>   0.0830 
 23 C       -5.6980    -8.2250     1.3820 C.ar  1 <1>  -0.1500 
 24 O       -7.4920    -6.2610    -1.1690 O.3   1 <1>  -0.3630 
 25 C       -6.6890    -7.9170     0.4550 C.ar  1 <1>   0.0830 
 26 C       -8.8720    -6.4790    -0.9880 C.3   1 <1>   0.1200 
 27 O       -7.7240    -8.7690     0.2070 O.3   1 <1>  -0.3630 
 28 C       -9.6250    -5.4170    -1.7820 C.3   1 <1>  -0.2400 
 29 C       -7.7680   -10.0740     0.7420 C.3   1 <1>   0.0400 
 30 H        2.2990    -0.5250    -1.0580 H     1 <1>   0.3700 
 31 H        0.4650    -3.2910     0.3860 H     1 <1>   0.0800 
 32 H       -0.4380    -3.1560    -1.0970 H     1 <1>   0.0800 
 33 H       -2.1400    -1.7830     0.0380 H     1 <1>   0.0800 
 34 H       -1.2340    -1.8530     1.5230 H     1 <1>   0.0800 
 35 H        1.5060    -3.3270    -2.7090 H     1 <1>   0.1500 
 36 H        4.8070    -0.9670     0.3730 H     1 <1>   0.0800 
 37 H        4.6820    -2.2030     1.6000 H     1 <1>   0.0800 
 38 H        3.2910    -1.2760     1.1850 H     1 <1>   0.0800 
 39 H        2.9150    -5.3040    -3.0620 H     1 <1>   0.1500 
 40 H        4.9060    -5.6440    -1.6930 H     1 <1>   0.1500 
 41 H        5.6420    -4.3950     1.2800 H     1 <1>   0.0800 
 42 H        6.5180    -3.2440     0.2900 H     1 <1>   0.0800 
 43 H        6.4740    -4.9230    -0.1580 H     1 <1>   0.0800 
 44 H       -5.4660    -4.9490    -0.5840 H     1 <1>   0.1500 
 45 H       -3.8850    -7.6300     2.3190 H     1 <1>   0.1500 
 46 H       -5.7300    -9.1340     1.9530 H     1 <1>   0.1500 
 47 H       -9.0980    -6.4060     0.0620 H     1 <1>   0.0800 
 48 H       -9.1090    -7.4630    -1.3500 H     1 <1>   0.0800 
 49 H       -9.3680    -4.4370    -1.4220 H     1 <1>   0.0800 
 50 H      -10.6840    -5.5600    -1.6670 H     1 <1>   0.0800 
 51 H       -9.3780    -5.4940    -2.8260 H     1 <1>   0.0800 
 52 H       -8.6330   -10.5690     0.3420 H     1 <1>   0.0800 
 53 H       -7.8470   -10.0100     1.8130 H     1 <1>   0.0800 
 54 H       -6.8770   -10.6010     0.4490 H     1 <1>   0.0800 
@<TRIPOS>BOND
  1   1   2  2   
  2   2   3  am  
  3   2   4  1   
  4   3   5  1   
  5   3  30  1   
  6   4   6  1   
  7   4  31  1   
  8   4  32  1   
  9   5   7  ar  
 10   5   8  ar  
 11   6   9  1   
 12   6  33  1   
 13   6  34  1   
 14   7  10  ar  
 15   7  11  1   
 16   8  12  ar  
 17   8  35  1   
 18   9  13  1   
 19   9  14  2   
 20  10  15  ar  
 21  10  16  1   
 22  11  36  1   
 23  11  37  1   
 24  11  38  1   
 25  12  15  ar  
 26  12  39  1   
 27  13  17  1   
 28  14  18  1   
 29  15  40  1   
 30  16  41  1   
 31  16  42  1   
 32  16  43  1   
 33  17  18  2   
 34  18  19  1   
 35  19  20  ar  
 36  19  21  ar  
 37  20  22  ar  
 38  20  44  1   
 39  21  23  ar  
 40  21  45  1   
 41  22  24  1   
 42  22  25  ar  
 43  23  25  ar  
 44  23  46  1   
 45  24  26  1   
 46  25  27  1   
 47  26  28  1   
 48  26  47  1   
 49  26  48  1   
 50  27  29  1   
 51  28  49  1   
 52  28  50  1   
 53  28  51  1   
 54  29  52  1   
 55  29  53  1   
 56  29  54  1   
@<TRIPOS>SUBSTRUCTURE
  1 ****   9 GROUP 4 **** **** 0

# MOE 2024.06 (io_trps.svl 2023.06)
