@<TRIPOS>MOLECULE
1-Propyl-1H-[1,2,4]triazol-3-ylamine
19 19 1 0 0 
SMALL
USER_CHARGES


@<TRIPOS>ATOM
  1 N       -0.1060     0.2420    -0.5790 N.2   1 <1>  -0.7070 
  2 N        0.9850     0.7360     0.0020 N.pl3 1 <1>   0.3140 
  3 C       -1.0270     0.9540    -0.0440 C.2   1 <1>   0.5990 
  4 C        0.6150     1.6950     0.8560 C.2   1 <1>   0.0360 
  5 C        2.3440     0.2500    -0.3040 C.3   1 <1>   0.0960 
  6 N       -0.6590     1.8570     0.8600 N.2   1 <1>  -0.5650 
  7 N       -2.3330     0.7720    -0.3420 N.pl3 1 <1>  -0.8830 
  8 C        2.7530    -0.8760     0.6560 C.3   1 <1>  -0.1600 
  9 C        4.1660    -1.3840     0.3490 C.3   1 <1>  -0.2400 
 10 H        1.3130     2.2490     1.4570 H     1 <1>   0.1500 
 11 H        3.0290     1.0750    -0.2280 H     1 <1>   0.0800 
 12 H        2.3500    -0.1090    -1.3180 H     1 <1>   0.0800 
 13 H       -2.8640     0.9710     0.5020 H     1 <1>   0.4000 
 14 H       -2.4370    -0.2000    -0.6200 H     1 <1>   0.4000 
 15 H        2.0570    -1.6920     0.5600 H     1 <1>   0.0800 
 16 H        2.7210    -0.5170     1.6710 H     1 <1>   0.0800 
 17 H        4.2180    -1.7700    -0.6550 H     1 <1>   0.0800 
 18 H        4.4280    -2.1750     1.0300 H     1 <1>   0.0800 
 19 H        4.8870    -0.5920     0.4540 H     1 <1>   0.0800 
@<TRIPOS>BOND
  1   1   2  1   
  2   1   3  2   
  3   2   4  1   
  4   2   5  1   
  5   3   6  1   
  6   3   7  1   
  7   4   6  2   
  8   4  10  1   
  9   5   8  1   
 10   5  11  1   
 11   5  12  1   
 12   7  13  1   
 13   7  14  1   
 14   8   9  1   
 15   8  15  1   
 16   8  16  1   
 17   9  17  1   
 18   9  18  1   
 19   9  19  1   
@<TRIPOS>SUBSTRUCTURE
  1 ****   2 GROUP 4 **** **** 0

# MOE 2024.06 (io_trps.svl 2023.06)
