@<TRIPOS>MOLECULE
3-[3-(2,3-Dihydro-benzo[1,4]dioxin-6-yl)-4-(morpholine-4-carbonyl)-pyrazol-1-yl]
47 50 1 0 0 
SMALL
USER_CHARGES


@<TRIPOS>ATOM
  1 O        0.9180    -0.5210     1.9460 O.2   1 <1>  -0.5700 
  2 C        1.1260    -1.2310     0.9810 C.2   1 <1>   0.7160 
  3 N        2.0980    -0.8650     0.0740 N.am  1 <1>  -0.6600 
  4 C        0.3580    -2.4330     0.8040 C.2   1 <1>  -0.0860 
  5 C        2.9140     0.3760     0.2410 C.3   1 <1>   0.1400 
  6 C        2.4070    -1.6160    -1.1800 C.3   1 <1>   0.1400 
  7 C       -0.9830    -2.5080     0.3910 C.2   1 <1>   0.2350 
  8 C        0.7180    -3.7290     1.0060 C.2   1 <1>  -0.3020 
  9 C        4.4010     0.0870    -0.0170 C.3   1 <1>   0.1200 
 10 C        3.9260    -1.7900    -1.3450 C.3   1 <1>   0.1200 
 11 N       -1.3900    -3.7520     0.3490 N.2   1 <1>  -0.7070 
 12 C       -1.8420    -1.3930     0.0480 C.ar  1 <1>   0.0540 
 13 N       -0.3450    -4.4930     0.7330 N.pl3 1 <1>   0.3140 
 14 O        4.5750    -0.5540    -1.2500 O.3   1 <1>  -0.5600 
 15 C       -3.1680    -1.3780     0.4770 C.ar  1 <1>  -0.1500 
 16 C       -1.3990    -0.3140    -0.7220 C.ar  1 <1>  -0.1500 
 17 C       -0.4270    -5.9620     0.8510 C.3   1 <1>   0.0960 
 18 C       -4.0150    -0.3330     0.1630 C.ar  1 <1>   0.0830 
 19 C       -2.2360     0.7430    -1.0370 C.ar  1 <1>  -0.1500 
 20 C       -1.3120    -6.5570    -0.2490 C.3   1 <1>   0.0400 
 21 O       -5.3030    -0.3790     0.5930 O.3   1 <1>  -0.3630 
 22 C       -3.5450     0.7430    -0.5900 C.ar  1 <1>   0.0830 
 23 C       -1.2780    -8.0390    -0.1690 C.1   1 <1>   0.3570 
 24 C       -6.2080     0.5270    -0.0090 C.3   1 <1>   0.1200 
 25 O       -4.3460     1.7950    -0.8930 O.3   1 <1>  -0.3630 
 26 N       -1.2180    -9.1700    -0.0830 N.1   1 <1>  -0.5570 
 27 C       -5.5550     1.9060    -0.1660 C.3   1 <1>   0.1200 
 28 H        2.8010     0.7760     1.2330 H     1 <1>   0.0800 
 29 H        2.5710     1.1200    -0.4560 H     1 <1>   0.0800 
 30 H        2.0260    -1.0660    -2.0220 H     1 <1>   0.0800 
 31 H        1.9400    -2.5840    -1.1790 H     1 <1>   0.0800 
 32 H        1.6630    -4.1180     1.3390 H     1 <1>   0.1500 
 33 H        4.8050    -0.5400     0.7590 H     1 <1>   0.0800 
 34 H        4.9580     1.0060    -0.0430 H     1 <1>   0.0800 
 35 H        4.1510    -2.2040    -2.3120 H     1 <1>   0.0800 
 36 H        4.3200    -2.4450    -0.5870 H     1 <1>   0.0800 
 37 H       -3.5410    -2.1990     1.0620 H     1 <1>   0.1500 
 38 H       -0.3900    -0.2980    -1.0860 H     1 <1>   0.1500 
 39 H       -0.8320    -6.1980     1.8180 H     1 <1>   0.0800 
 40 H        0.5670    -6.3650     0.7840 H     1 <1>   0.0800 
 41 H       -1.8810     1.5700    -1.6240 H     1 <1>   0.1500 
 42 H       -0.9580    -6.2550    -1.2180 H     1 <1>   0.0800 
 43 H       -2.3300    -6.2300    -0.1290 H     1 <1>   0.0800 
 44 H       -7.0820     0.5850     0.6150 H     1 <1>   0.0800 
 45 H       -6.4850     0.1320    -0.9710 H     1 <1>   0.0800 
 46 H       -5.3270     2.3230     0.7990 H     1 <1>   0.0800 
 47 H       -6.2020     2.5790    -0.7000 H     1 <1>   0.0800 
@<TRIPOS>BOND
  1   1   2  2   
  2   2   3  am  
  3   2   4  1   
  4   3   5  1   
  5   3   6  1   
  6   4   7  1   
  7   4   8  2   
  8   5   9  1   
  9   5  28  1   
 10   5  29  1   
 11   6  10  1   
 12   6  30  1   
 13   6  31  1   
 14   7  11  2   
 15   7  12  1   
 16   8  13  1   
 17   8  32  1   
 18   9  14  1   
 19   9  33  1   
 20   9  34  1   
 21  10  14  1   
 22  10  35  1   
 23  10  36  1   
 24  11  13  1   
 25  12  15  ar  
 26  12  16  ar  
 27  13  17  1   
 28  15  18  ar  
 29  15  37  1   
 30  16  19  ar  
 31  16  38  1   
 32  17  20  1   
 33  17  39  1   
 34  17  40  1   
 35  18  21  1   
 36  18  22  ar  
 37  19  22  ar  
 38  19  41  1   
 39  20  23  1   
 40  20  42  1   
 41  20  43  1   
 42  21  24  1   
 43  22  25  1   
 44  23  26  3   
 45  24  27  1   
 46  24  44  1   
 47  24  45  1   
 48  25  27  1   
 49  27  46  1   
 50  27  47  1   
@<TRIPOS>SUBSTRUCTURE
  1 ****   7 GROUP 4 **** **** 0

# MOE 2024.06 (io_trps.svl 2023.06)
