@<TRIPOS>MOLECULE
2-(4-Isopropyl-benzylamino)-5,6-dimethyl-4H-[1,2,4]triazolo[1,5-a]pyrimidin-7-on
44 46 1 0 0 
SMALL
USER_CHARGES


@<TRIPOS>ATOM
  1 O       -0.0840    -0.3730     0.7410 O.2   1 <1>  -0.5700 
  2 C       -0.3950    -1.5260     0.4640 C.2   1 <1>   0.5650 
  3 N       -1.6900    -2.0200     0.7370 N.pl3 1 <1>   0.5610 
  4 C        0.5400    -2.4280    -0.1620 C.2   1 <1>  -0.1240 
  5 N       -2.7880    -1.4640     1.3110 N.2   1 <1>  -0.7070 
  6 C       -2.0280    -3.2830     0.3890 C.2   1 <1>   0.2700 
  7 C        0.1590    -3.6950    -0.5110 C.2   1 <1>  -0.0380 
  8 C        1.9520    -1.8820    -0.4000 C.3   1 <1>  -0.1020 
  9 C       -3.6330    -2.4300     1.2590 C.2   1 <1>   0.5990 
 10 N       -3.2370    -3.5730     0.6940 N.2   1 <1>  -0.5650 
 11 N       -1.1180    -4.1200    -0.2310 N.pl3 1 <1>  -0.5840 
 12 C        1.0160    -4.7430    -1.2070 C.3   1 <1>  -0.1020 
 13 N       -4.9040    -2.3520     1.7450 N.pl3 1 <1>  -0.8520 
 14 C       -5.6240    -1.0960     1.4790 C.3   1 <1>   0.3530 
 15 C       -7.0050    -1.4530     0.9600 C.ar  1 <1>  -0.1440 
 16 C       -7.2410    -1.5410    -0.4030 C.ar  1 <1>  -0.1500 
 17 C       -8.0420    -1.7050     1.8430 C.ar  1 <1>  -0.1500 
 18 C       -8.5010    -1.8670    -0.8750 C.ar  1 <1>  -0.1500 
 19 C       -9.3010    -2.0310     1.3690 C.ar  1 <1>  -0.1500 
 20 C       -9.5440    -2.1150     0.0050 C.ar  1 <1>  -0.1440 
 21 C      -10.9270    -2.4730    -0.5340 C.3   1 <1>   0.0630 
 22 C      -11.9640    -1.4250    -0.1170 C.3   1 <1>  -0.2400 
 23 C      -11.3500    -3.8710    -0.0730 C.3   1 <1>  -0.2400 
 24 H        1.9460    -1.2110    -1.2400 H     1 <1>   0.0800 
 25 H        2.6720    -2.6560    -0.5780 H     1 <1>   0.0800 
 26 H        2.2870    -1.3350     0.4650 H     1 <1>   0.0800 
 27 H       -1.4510    -5.0640    -0.4570 H     1 <1>   0.4000 
 28 H        1.3490    -5.4740    -0.4930 H     1 <1>   0.0800 
 29 H        1.8720    -4.3150    -1.6910 H     1 <1>   0.0800 
 30 H        0.4390    -5.2420    -1.9660 H     1 <1>   0.0800 
 31 H       -5.4390    -3.1300     1.3580 H     1 <1>   0.4000 
 32 H       -5.1040    -0.4950     0.7520 H     1 <1>   0.0800 
 33 H       -5.7000    -0.5310     2.3920 H     1 <1>   0.0800 
 34 H       -6.4450    -1.3570    -1.1030 H     1 <1>   0.1500 
 35 H       -7.8710    -1.6500     2.9040 H     1 <1>   0.1500 
 36 H       -8.6630    -1.9280    -1.9360 H     1 <1>   0.1500 
 37 H      -10.0920    -2.2210     2.0720 H     1 <1>   0.1500 
 38 H      -10.8860    -2.4820    -1.6100 H     1 <1>   0.0800 
 39 H      -12.0840    -1.4080     0.9510 H     1 <1>   0.0800 
 40 H      -12.9160    -1.6440    -0.5670 H     1 <1>   0.0800 
 41 H      -11.6480    -0.4500    -0.4420 H     1 <1>   0.0800 
 42 H      -11.4540    -3.9060     0.9970 H     1 <1>   0.0800 
 43 H      -10.6080    -4.5910    -0.3680 H     1 <1>   0.0800 
 44 H      -12.2890    -4.1430    -0.5200 H     1 <1>   0.0800 
@<TRIPOS>BOND
  1   1   2  2   
  2   2   3  1   
  3   2   4  1   
  4   3   5  1   
  5   3   6  1   
  6   4   7  2   
  7   4   8  1   
  8   5   9  2   
  9   6  10  2   
 10   6  11  1   
 11   7  11  1   
 12   7  12  1   
 13   8  24  1   
 14   8  25  1   
 15   8  26  1   
 16   9  10  1   
 17   9  13  1   
 18  11  27  1   
 19  12  28  1   
 20  12  29  1   
 21  12  30  1   
 22  13  14  1   
 23  13  31  1   
 24  14  15  1   
 25  14  32  1   
 26  14  33  1   
 27  15  16  ar  
 28  15  17  ar  
 29  16  18  ar  
 30  16  34  1   
 31  17  19  ar  
 32  17  35  1   
 33  18  20  ar  
 34  18  36  1   
 35  19  20  ar  
 36  19  37  1   
 37  20  21  1   
 38  21  22  1   
 39  21  23  1   
 40  21  38  1   
 41  22  39  1   
 42  22  40  1   
 43  22  41  1   
 44  23  42  1   
 45  23  43  1   
 46  23  44  1   
@<TRIPOS>SUBSTRUCTURE
  1 ****   9 GROUP 4 **** **** 0

# MOE 2024.06 (io_trps.svl 2023.06)
