@<TRIPOS>MOLECULE
1-Allyl-4-hydroxy-6,7-dimethoxy-2-oxo-1,2-dihydro-quinoline-3-carboxylic acid et
43 44 1 0 0 
SMALL
USER_CHARGES


@<TRIPOS>ATOM
  1 O       -0.1770     0.4740     0.4180 O.2   1 <1>  -0.5700 
  2 C       -1.2660     1.0420     0.2910 C.2   1 <1>   0.5350 
  3 N       -2.4170     0.2670     0.4050 N.am  1 <1>  -0.4770 
  4 C       -1.3560     2.4290     0.0670 C.3   1 <1>  -0.7150 
  5 C       -3.6960     0.8270     0.2250 C.ar  1 <1>   0.1170 
  6 C       -2.2740    -1.1570     0.8300 C.3   1 <1>   0.2780 
  7 C       -2.6250     3.0270     0.1250 C.2   1 <1>   0.3890 
  8 C       -0.2190     3.2030    -0.2220 C.2   1 <1>   0.5350 
  9 C       -3.8150     2.2150     0.1030 C.ar  1 <1>   0.0860 
 10 C       -4.8560     0.0520     0.1590 C.ar  1 <1>  -0.1500 
 11 C       -2.3770    -2.1320    -0.3420 C.2   1 <1>  -0.2880 
 12 O       -2.7630     4.2520     0.2310 O.2   1 <1>  -0.5700 
 13 O       -0.1820     4.0330    -1.1260 O.2   1 <1>  -0.5700 
 14 N        0.9210     2.9740     0.4820 N.am  1 <1>  -0.7300 
 15 C       -5.0870     2.7760    -0.0420 C.ar  1 <1>  -0.1500 
 16 C       -6.1100     0.6080     0.0060 C.ar  1 <1>   0.0820 
 17 C       -2.4770    -1.8270    -1.6410 C.2   1 <1>  -0.3000 
 18 C        2.2340     3.4100    -0.0040 C.3   1 <1>   0.1400 
 19 C       -6.2380     2.0040    -0.0780 C.ar  1 <1>   0.0820 
 20 O       -7.1390    -0.2820    -0.0460 O.3   1 <1>  -0.3630 
 21 C        3.3060     2.8750     0.9370 C.3   1 <1>  -0.2400 
 22 O       -7.4800     2.5720    -0.1770 O.3   1 <1>  -0.3630 
 23 C       -8.2660    -0.0460    -0.8610 C.3   1 <1>   0.0400 
 24 C       -7.6540     3.9690    -0.0700 C.3   1 <1>   0.0400 
 25 H       -3.0410    -1.3770     1.5500 H     1 <1>   0.0800 
 26 H       -1.3350    -1.3080     1.3330 H     1 <1>   0.0800 
 27 H       -4.7980    -1.0170     0.2140 H     1 <1>   0.1500 
 28 H       -2.3530    -3.1520    -0.0030 H     1 <1>   0.1500 
 29 H        0.8850     2.0140     0.8420 H     1 <1>   0.3700 
 30 H       -5.1290     3.8450    -0.1260 H     1 <1>   0.1500 
 31 H       -2.5440    -2.5520    -2.4320 H     1 <1>   0.1500 
 32 H       -2.4920    -0.8180    -2.0210 H     1 <1>   0.1500 
 33 H        2.2540     4.4860    -0.0350 H     1 <1>   0.0800 
 34 H        2.3820     3.0330    -1.0020 H     1 <1>   0.0800 
 35 H        3.1420     3.2540     1.9300 H     1 <1>   0.0800 
 36 H        4.2750     3.1940     0.6000 H     1 <1>   0.0800 
 37 H        3.2800     1.8010     0.9520 H     1 <1>   0.0800 
 38 H       -8.7380    -0.9900    -1.0610 H     1 <1>   0.0800 
 39 H       -7.9450     0.4100    -1.7820 H     1 <1>   0.0800 
 40 H       -8.9460     0.5970    -0.3330 H     1 <1>   0.0800 
 41 H       -7.1700     4.4470    -0.9030 H     1 <1>   0.0800 
 42 H       -7.2340     4.3030     0.8620 H     1 <1>   0.0800 
 43 H       -8.7080     4.1780    -0.0920 H     1 <1>   0.0800 
@<TRIPOS>BOND
  1   1   2  2   
  2   2   3  am  
  3   2   4  1   
  4   3   5  1   
  5   3   6  1   
  6   4   7  1   
  7   4   8  1   
  8   5   9  ar  
  9   5  10  ar  
 10   6  11  1   
 11   6  25  1   
 12   6  26  1   
 13   7   9  1   
 14   7  12  2   
 15   8  13  2   
 16   8  14  am  
 17   9  15  ar  
 18  10  16  ar  
 19  10  27  1   
 20  11  17  2   
 21  11  28  1   
 22  14  18  1   
 23  14  29  1   
 24  15  19  ar  
 25  15  30  1   
 26  16  19  ar  
 27  16  20  1   
 28  17  31  1   
 29  17  32  1   
 30  18  21  1   
 31  18  33  1   
 32  18  34  1   
 33  19  22  1   
 34  20  23  1   
 35  21  35  1   
 36  21  36  1   
 37  21  37  1   
 38  22  24  1   
 39  23  38  1   
 40  23  39  1   
 41  23  40  1   
 42  24  41  1   
 43  24  42  1   
 44  24  43  1   
@<TRIPOS>SUBSTRUCTURE
  1 ****   5 GROUP 4 **** **** 0

# MOE 2024.06 (io_trps.svl 2023.06)
