@<TRIPOS>MOLECULE
N-(4-Ethyl-5-mercapto-4H-[1,2,4]triazol-3-ylmethyl)-2-(4-methoxy-phenyl)-acetami
39 40 1 0 0 
SMALL
USER_CHARGES


@<TRIPOS>ATOM
  1 S       -0.7780     1.9090    -1.1460 S.3   1 <1>  -0.9360 
  2 C       -1.2770     3.4320    -1.3880 C.cat 1 <1>   0.7360 
  3 N       -1.4730     3.9730    -2.5690 N.pl3 1 <1>  -0.3930 
  4 N       -1.5550     4.3320    -0.4620 N.pl3 1 <1>  -0.7640 
  5 N       -1.8920     5.2660    -2.4440 N.2   1 <1>  -0.2600 
  6 C       -1.9330     5.4520    -1.1720 C.2   1 <1>   0.4850 
  7 C       -1.4290     4.0920     0.9890 C.3   1 <1>   0.3540 
  8 C       -2.3600     6.7680    -0.5190 C.3   1 <1>   0.3080 
  9 C       -2.8140     3.8540     1.5820 C.3   1 <1>  -0.2400 
 10 N       -1.3360     7.3090     0.4240 N.am  1 <1>  -0.7300 
 11 C       -1.5070     8.0330     1.5580 C.2   1 <1>   0.5690 
 12 O       -0.5350     8.3070     2.2100 O.2   1 <1>  -0.5700 
 13 C       -2.8710     8.4970     2.0640 C.3   1 <1>   0.0440 
 14 C       -3.8110     8.9940     0.9700 C.ar  1 <1>  -0.1430 
 15 C       -5.0910     8.4710     0.8480 C.ar  1 <1>  -0.1500 
 16 C       -3.3870     9.9660     0.0750 C.ar  1 <1>  -0.1500 
 17 C       -5.9290     8.8930    -0.1690 C.ar  1 <1>  -0.1500 
 18 C       -4.2230    10.3880    -0.9420 C.ar  1 <1>  -0.1500 
 19 C       -5.4930     9.8530    -1.0770 C.ar  1 <1>   0.0830 
 20 O       -6.2420    10.3120    -2.1090 O.3   1 <1>  -0.3630 
 21 C       -7.5890     9.9230    -2.2700 C.3   1 <1>   0.0400 
 22 H       -1.3130     3.4370    -3.4230 H     1 <1>   0.4500 
 23 H       -0.9570     4.9340     1.4640 H     1 <1>   0.0800 
 24 H       -0.8090     3.2280     1.1680 H     1 <1>   0.0800 
 25 H       -3.2820     6.5930     0.0030 H     1 <1>   0.0800 
 26 H       -2.5460     7.4970    -1.2890 H     1 <1>   0.0800 
 27 H       -3.4410     4.7150     1.4560 H     1 <1>   0.0800 
 28 H       -2.7220     3.6450     2.6320 H     1 <1>   0.0800 
 29 H       -3.2680     3.0010     1.1070 H     1 <1>   0.0800 
 30 H       -0.3620     7.1210     0.1710 H     1 <1>   0.3700 
 31 H       -2.7160     9.2960     2.7660 H     1 <1>   0.0800 
 32 H       -3.3190     7.6830     2.6010 H     1 <1>   0.0800 
 33 H       -5.4460     7.7300     1.5440 H     1 <1>   0.1500 
 34 H       -2.4040    10.3980     0.1630 H     1 <1>   0.1500 
 35 H       -6.9120     8.4690    -0.2390 H     1 <1>   0.1500 
 36 H       -3.8970    11.1400    -1.6390 H     1 <1>   0.1500 
 37 H       -7.9880    10.4480    -3.1200 H     1 <1>   0.0800 
 38 H       -8.1380    10.1900    -1.3850 H     1 <1>   0.0800 
 39 H       -7.6290     8.8630    -2.4450 H     1 <1>   0.0800 
@<TRIPOS>BOND
  1   1   2  1   
  2   2   3  ar  
  3   2   4  ar  
  4   3   5  1   
  5   3  22  1   
  6   4   6  1   
  7   4   7  1   
  8   5   6  2   
  9   6   8  1   
 10   7   9  1   
 11   7  23  1   
 12   7  24  1   
 13   8  10  1   
 14   8  25  1   
 15   8  26  1   
 16   9  27  1   
 17   9  28  1   
 18   9  29  1   
 19  10  11  am  
 20  10  30  1   
 21  11  12  2   
 22  11  13  1   
 23  13  14  1   
 24  13  31  1   
 25  13  32  1   
 26  14  15  ar  
 27  14  16  ar  
 28  15  17  ar  
 29  15  33  1   
 30  16  18  ar  
 31  16  34  1   
 32  17  19  ar  
 33  17  35  1   
 34  18  19  ar  
 35  18  36  1   
 36  19  20  1   
 37  20  21  1   
 38  21  37  1   
 39  21  38  1   
 40  21  39  1   
@<TRIPOS>SUBSTRUCTURE
  1 ****   8 GROUP 4 **** **** 0

# MOE 2024.06 (io_trps.svl 2023.06)
