@<TRIPOS>MOLECULE
3-Phenyl-pyrrolidin-3-ol
26 27 1 0 0 
SMALL
USER_CHARGES


@<TRIPOS>ATOM
  1 O        0.9530    -0.1040    -1.8150 O.3   1 <1>  -0.6800 
  2 C        1.2630     0.2930    -0.5300 C.3   1 <1>   0.4240 
  3 C        0.4390     1.5390    -0.2130 C.ar  1 <1>  -0.1440 
  4 C        0.9990    -0.8900     0.4110 C.3   1 <1>   0.3430 
  5 C        2.7810     0.3990    -0.4560 C.3   1 <1>  -0.1600 
  6 C        1.0210     2.7850    -0.0020 C.ar  1 <1>  -0.1500 
  7 C       -0.9460     1.4320    -0.1410 C.ar  1 <1>  -0.1500 
  8 N        2.1420    -1.8390     0.2080 N.4   1 <1>  -0.9060 
  9 C        3.2630    -1.0490    -0.3810 C.3   1 <1>   0.3430 
 10 C        0.2380     3.8880     0.2910 C.ar  1 <1>  -0.1500 
 11 C       -1.7280     2.5350     0.1520 C.ar  1 <1>  -0.1500 
 12 C       -1.1360     3.7640     0.3710 C.ar  1 <1>  -0.1500 
 13 H        0.6800     0.6890    -2.3250 H     1 <1>   0.4000 
 14 H        0.0470    -1.3460     0.1960 H     1 <1>   0.0800 
 15 H        1.0000    -0.5270     1.4250 H     1 <1>   0.0800 
 16 H        3.0740     0.8990     0.4490 H     1 <1>   0.0800 
 17 H        3.2010     0.9260    -1.2950 H     1 <1>   0.0800 
 18 H        2.0840     2.9330    -0.0620 H     1 <1>   0.1500 
 19 H       -1.4390     0.4910    -0.3190 H     1 <1>   0.1500 
 20 H        1.8510    -2.5440    -0.4830 H     1 <1>   0.4500 
 21 H        2.4080    -2.3210     1.0760 H     1 <1>   0.4500 
 22 H        4.1600    -1.1280     0.2140 H     1 <1>   0.0800 
 23 H        3.4690    -1.4080    -1.3780 H     1 <1>   0.0800 
 24 H        0.6960     4.8490     0.4560 H     1 <1>   0.1500 
 25 H       -2.8000     2.4410     0.2070 H     1 <1>   0.1500 
 26 H       -1.7440     4.6230     0.5990 H     1 <1>   0.1500 
@<TRIPOS>BOND
  1   1   2  1   
  2   1  13  1   
  3   2   3  1   
  4   2   4  1   
  5   2   5  1   
  6   3   6  ar  
  7   3   7  ar  
  8   4   8  1   
  9   4  14  1   
 10   4  15  1   
 11   5   9  1   
 12   5  16  1   
 13   5  17  1   
 14   6  10  ar  
 15   6  18  1   
 16   7  11  ar  
 17   7  19  1   
 18   8   9  1   
 19   8  20  1   
 20   8  21  1   
 21   9  22  1   
 22   9  23  1   
 23  10  12  ar  
 24  10  24  1   
 25  11  12  ar  
 26  11  25  1   
 27  12  26  1   
@<TRIPOS>SUBSTRUCTURE
  1 ****   3 GROUP 4 **** **** 0

# MOE 2024.06 (io_trps.svl 2023.06)
