@<TRIPOS>MOLECULE
1-Methanesulfonyl-piperidine-4-carboxylic acid (4-chloro-2,5-dimethoxy-phenyl)-a
45 46 1 0 0 
SMALL
USER_CHARGES


@<TRIPOS>ATOM
  1 CL      -0.0290     0.1880     0.5540 Cl    1 <1>  -0.1770 
  2 C       -1.5660    -0.6380     0.3950 C.ar  1 <1>   0.1770 
  3 C       -2.6290    -0.0270    -0.2600 C.ar  1 <1>   0.0830 
  4 C       -1.6810    -1.9020     0.9370 C.ar  1 <1>  -0.1500 
  5 O       -2.4390     1.2240    -0.7690 O.3   1 <1>  -0.3630 
  6 C       -3.8320    -0.7180    -0.3650 C.ar  1 <1>  -0.1500 
  7 C       -2.8880    -2.5850     0.8290 C.ar  1 <1>   0.0830 
  8 C       -3.4820     1.9140    -1.4240 C.3   1 <1>   0.0400 
  9 C       -3.9760    -1.9920     0.1750 C.ar  1 <1>   0.1170 
 10 O       -3.0760    -3.8410     1.3420 O.3   1 <1>  -0.3630 
 11 N       -5.1710    -2.7340     0.0980 N.am  1 <1>  -0.5470 
 12 C       -2.0350    -4.5120     2.0190 C.3   1 <1>   0.0400 
 13 C       -6.4160    -2.4690    -0.3990 C.2   1 <1>   0.5690 
 14 O       -6.7200    -1.4220    -0.9160 O.2   1 <1>  -0.5700 
 15 C       -7.4680    -3.5700    -0.2690 C.3   1 <1>  -0.0190 
 16 C       -8.3310    -3.7170    -1.5350 C.3   1 <1>  -0.1600 
 17 C       -8.3850    -3.3220     0.9390 C.3   1 <1>  -0.1600 
 18 C       -9.4070    -4.7870    -1.3440 C.3   1 <1>   0.1960 
 19 C       -9.4770    -4.3900     1.0480 C.3   1 <1>   0.1960 
 20 N      -10.2540    -4.4570    -0.1930 N.am  1 <1>  -0.8490 
 21 S      -11.5800    -5.5030    -0.0500 S.o2  1 <1>   1.3330 
 22 O      -11.1890    -6.7900    -0.5800 O.2   1 <1>  -0.6500 
 23 O      -12.1020    -5.4050     1.2930 O.2   1 <1>  -0.6500 
 24 C      -12.7710    -4.7600    -1.1450 C.3   1 <1>  -0.1350 
 25 H       -0.8250    -2.3190     1.4290 H     1 <1>   0.1500 
 26 H       -4.6640    -0.2700    -0.8670 H     1 <1>   0.1500 
 27 H       -3.1080     2.8750    -1.7270 H     1 <1>   0.0800 
 28 H       -4.3030     2.0390    -0.7400 H     1 <1>   0.0800 
 29 H       -3.7850     1.3510    -2.2900 H     1 <1>   0.0800 
 30 H       -5.0560    -3.6510     0.5340 H     1 <1>   0.3700 
 31 H       -2.4030    -5.4730     2.3330 H     1 <1>   0.0800 
 32 H       -1.7460    -3.9350     2.8800 H     1 <1>   0.0800 
 33 H       -1.2050    -4.6440     1.3470 H     1 <1>   0.0800 
 34 H       -6.9580    -4.5040    -0.1150 H     1 <1>   0.0800 
 35 H       -7.7070    -3.9800    -2.3700 H     1 <1>   0.0800 
 36 H       -8.8110    -2.7810    -1.7660 H     1 <1>   0.0800 
 37 H       -8.8540    -2.3570     0.8450 H     1 <1>   0.0800 
 38 H       -7.8040    -3.3150     1.8440 H     1 <1>   0.0800 
 39 H       -8.9450    -5.7500    -1.1970 H     1 <1>   0.0800 
 40 H      -10.0100    -4.8390    -2.2360 H     1 <1>   0.0800 
 41 H      -10.1230    -4.1280     1.8710 H     1 <1>   0.0800 
 42 H       -9.0420    -5.3540     1.2590 H     1 <1>   0.0800 
 43 H      -12.3950    -4.7380    -2.1480 H     1 <1>   0.0800 
 44 H      -12.9810    -3.7570    -0.8300 H     1 <1>   0.0800 
 45 H      -13.6830    -5.3240    -1.1300 H     1 <1>   0.0800 
@<TRIPOS>BOND
  1   1   2  1   
  2   2   3  ar  
  3   2   4  ar  
  4   3   5  1   
  5   3   6  ar  
  6   4   7  ar  
  7   4  25  1   
  8   5   8  1   
  9   6   9  ar  
 10   6  26  1   
 11   7   9  ar  
 12   7  10  1   
 13   8  27  1   
 14   8  28  1   
 15   8  29  1   
 16   9  11  1   
 17  10  12  1   
 18  11  13  am  
 19  11  30  1   
 20  12  31  1   
 21  12  32  1   
 22  12  33  1   
 23  13  14  2   
 24  13  15  1   
 25  15  16  1   
 26  15  17  1   
 27  15  34  1   
 28  16  18  1   
 29  16  35  1   
 30  16  36  1   
 31  17  19  1   
 32  17  37  1   
 33  17  38  1   
 34  18  20  1   
 35  18  39  1   
 36  18  40  1   
 37  19  20  1   
 38  19  41  1   
 39  19  42  1   
 40  20  21  am  
 41  21  22  2   
 42  21  23  2   
 43  21  24  1   
 44  24  43  1   
 45  24  44  1   
 46  24  45  1   
@<TRIPOS>SUBSTRUCTURE
  1 ****  13 GROUP 4 **** **** 0

# MOE 2024.06 (io_trps.svl 2023.06)
