@<TRIPOS>MOLECULE
1-Benzyl-3,7-dimethyl-8-pyrrolidin-1-yl-3,7-dihydro-purine-2,6-dione
47 50 1 0 0 
SMALL
USER_CHARGES


@<TRIPOS>ATOM
  1 O        0.4870     0.8200    -2.8810 O.2   1 <1>  -0.5750 
  2 C        1.3580     1.2420    -2.1480 C.2   1 <1>   0.6860 
  3 N        1.1640     2.4120    -1.4310 N.am  1 <1>  -0.4260 
  4 N        2.5620     0.5570    -2.0420 N.am  1 <1>  -0.4420 
  5 C        2.1830     2.9840    -0.6890 C.2   1 <1>   0.6990 
  6 C       -0.2170     2.9410    -1.2760 C.3   1 <1>   0.2770 
  7 C        3.5540     1.1090    -1.2540 C.2   1 <1>   0.4200 
  8 C        2.7730    -0.7320    -2.7650 C.3   1 <1>   0.0520 
  9 O        2.0350     4.0770    -0.1660 O.2   1 <1>  -0.5750 
 10 C        3.4210     2.2690    -0.5790 C.2   1 <1>   0.2700 
 11 C       -0.8290     2.3230    -0.0300 C.ar  1 <1>  -0.1510 
 12 N        4.8020     0.6200    -1.0320 N.pl3 1 <1>  -0.7040 
 13 N        4.6440     2.4820     0.0950 N.pl3 1 <1>  -0.7670 
 14 C       -1.4480     1.0830    -0.0990 C.ar  1 <1>  -0.1580 
 15 C       -0.7670     2.9860     1.1870 C.ar  1 <1>  -0.1580 
 16 C        5.4570     1.4610    -0.2300 C.cat 1 <1>   1.0690 
 17 C        4.8320     3.6300     1.0290 C.3   1 <1>   0.2670 
 18 C       -1.9960     0.5120     1.0360 C.ar  1 <1>  -0.1580 
 19 C       -1.3150     2.4150     2.3220 C.ar  1 <1>  -0.1580 
 20 N        6.7410     1.2530     0.1380 N.pl3 1 <1>  -0.5970 
 21 C       -1.9290     1.1770     2.2480 C.ar  1 <1>  -0.1580 
 22 C        7.5180     0.0350    -0.2190 C.3   1 <1>   0.1600 
 23 C        7.6260     2.2230     0.8320 C.3   1 <1>   0.1600 
 24 C        8.8680     0.1980     0.4660 C.3   1 <1>  -0.1680 
 25 C        9.0400     1.7020     0.6170 C.3   1 <1>  -0.1680 
 26 H       -0.8160     2.7010    -2.1380 H     1 <1>   0.0720 
 27 H       -0.1990     4.0140    -1.1880 H     1 <1>   0.0720 
 28 H        1.8290    -1.1910    -3.0060 H     1 <1>   0.0720 
 29 H        3.3290    -1.4190    -2.1530 H     1 <1>   0.0720 
 30 H        3.3080    -0.5500    -3.6810 H     1 <1>   0.0720 
 31 H        5.1980    -0.2270    -1.4230 H     1 <1>   0.4440 
 32 H       -1.5080     0.5560    -1.0360 H     1 <1>   0.1420 
 33 H       -0.2940     3.9510     1.2580 H     1 <1>   0.1420 
 34 H        3.8910     3.9170     1.4670 H     1 <1>   0.0720 
 35 H        5.2340     4.4760     0.4960 H     1 <1>   0.0720 
 36 H        5.4910     3.3660     1.8350 H     1 <1>   0.0720 
 37 H       -2.4760    -0.4490     0.9770 H     1 <1>   0.1420 
 38 H       -1.2660     2.9340     3.2630 H     1 <1>   0.1420 
 39 H       -2.3560     0.7340     3.1300 H     1 <1>   0.1420 
 40 H        7.6570    -0.0020    -1.2870 H     1 <1>   0.0720 
 41 H        7.0230    -0.8600     0.1200 H     1 <1>   0.0720 
 42 H        7.4010     2.2200     1.8860 H     1 <1>   0.0720 
 43 H        7.5200     3.2160     0.4310 H     1 <1>   0.0720 
 44 H        9.6660    -0.2490    -0.1030 H     1 <1>   0.0720 
 45 H        8.8340    -0.2670     1.4370 H     1 <1>   0.0720 
 46 H        9.6920     1.9590     1.4340 H     1 <1>   0.0720 
 47 H        9.4410     2.1210    -0.2910 H     1 <1>   0.0720 
@<TRIPOS>BOND
  1   1   2  2   
  2   2   3  am  
  3   2   4  am  
  4   3   5  am  
  5   3   6  1   
  6   4   7  1   
  7   4   8  1   
  8   5   9  2   
  9   5  10  1   
 10   6  11  1   
 11   6  26  1   
 12   6  27  1   
 13   7  10  2   
 14   7  12  1   
 15   8  28  1   
 16   8  29  1   
 17   8  30  1   
 18  10  13  1   
 19  11  14  ar  
 20  11  15  ar  
 21  12  16  ar  
 22  12  31  1   
 23  13  16  ar  
 24  13  17  1   
 25  14  18  ar  
 26  14  32  1   
 27  15  19  ar  
 28  15  33  1   
 29  16  20  ar  
 30  17  34  1   
 31  17  35  1   
 32  17  36  1   
 33  18  21  ar  
 34  18  37  1   
 35  19  21  ar  
 36  19  38  1   
 37  20  22  1   
 38  20  23  1   
 39  21  39  1   
 40  22  24  1   
 41  22  40  1   
 42  22  41  1   
 43  23  25  1   
 44  23  42  1   
 45  23  43  1   
 46  24  25  1   
 47  24  44  1   
 48  24  45  1   
 49  25  46  1   
 50  25  47  1   
@<TRIPOS>SUBSTRUCTURE
  1 ****  10 GROUP 4 **** **** 0

# MOE 2024.06 (io_trps.svl 2023.06)
