@<TRIPOS>MOLECULE
1,3-Dimethyl-7-p-tolyloxymethyl-6,7-dihydro-1H-oxazolo[2,3-f]purine-2,4-dione
43 46 1 0 0 
SMALL
USER_CHARGES


@<TRIPOS>ATOM
  1 O       -0.1910     1.1700     0.6830 O.2   1 <1>  -0.5700 
  2 C        0.9460     1.5700     0.4950 C.2   1 <1>   0.6900 
  3 N        1.3720     2.7360     1.1260 N.am  1 <1>  -0.4200 
  4 N        1.8020     0.8650    -0.3350 N.am  1 <1>  -0.4230 
  5 C        2.6690     3.1910     0.9650 C.2   1 <1>   0.7150 
  6 C        0.4230     3.4750     2.0090 C.3   1 <1>   0.0600 
  7 C        3.1010     1.3250    -0.5140 C.2   1 <1>   0.2900 
  8 C        1.3940    -0.3790    -1.0400 C.3   1 <1>   0.0600 
  9 O        3.0730     4.1900     1.5350 O.2   1 <1>  -0.5700 
 10 C        3.5150     2.4500     0.1160 C.2   1 <1>  -0.2370 
 11 N        4.0620     0.7660    -1.2720 N.2   1 <1>  -0.5650 
 12 N        4.8020     2.6070    -0.2670 N.pl3 1 <1>   0.0480 
 13 C        5.0470     1.5870    -1.0740 C.2   1 <1>   0.2490 
 14 C        5.9680     3.4560    -0.1320 C.3   1 <1>   0.0960 
 15 O        6.2950     1.5780    -1.5480 O.3   1 <1>  -0.3430 
 16 C        7.0040     2.6770    -0.9740 C.3   1 <1>   0.2000 
 17 C        8.1660     2.1490    -0.1250 C.3   1 <1>   0.1200 
 18 O        9.1280     1.5490    -0.9650 O.3   1 <1>  -0.3630 
 19 C       10.2780     1.0360    -0.4610 C.ar  1 <1>   0.0820 
 20 C       10.5830     0.9960     0.8970 C.ar  1 <1>  -0.1500 
 21 C       11.1880     0.5310    -1.3760 C.ar  1 <1>  -0.1500 
 22 C       11.7870     0.4600     1.3200 C.ar  1 <1>  -0.1500 
 23 C       12.3900    -0.0040    -0.9480 C.ar  1 <1>  -0.1500 
 24 C       12.6970    -0.0390     0.4020 C.ar  1 <1>  -0.1440 
 25 C       14.0160    -0.6270     0.8720 C.3   1 <1>  -0.0970 
 26 H       -0.5530     3.5010     1.5570 H     1 <1>   0.0800 
 27 H        0.7510     4.4880     2.1670 H     1 <1>   0.0800 
 28 H        0.3540     2.9740     2.9580 H     1 <1>   0.0800 
 29 H        0.3570    -0.6030    -0.8650 H     1 <1>   0.0800 
 30 H        1.9950    -1.2000    -0.6910 H     1 <1>   0.0800 
 31 H        1.5510    -0.2580    -2.0980 H     1 <1>   0.0800 
 32 H        6.2490     3.5440     0.9010 H     1 <1>   0.0800 
 33 H        5.7670     4.4260    -0.5500 H     1 <1>   0.0800 
 34 H        7.3810     3.2920    -1.7730 H     1 <1>   0.0800 
 35 H        7.8150     1.4130     0.5770 H     1 <1>   0.0800 
 36 H        8.6450     2.9590     0.3950 H     1 <1>   0.0800 
 37 H        9.9020     1.3700     1.6360 H     1 <1>   0.1500 
 38 H       10.9470     0.5580    -2.4230 H     1 <1>   0.1500 
 39 H       12.0140     0.4320     2.3720 H     1 <1>   0.1500 
 40 H       13.0840    -0.3920    -1.6720 H     1 <1>   0.1500 
 41 H       14.3360    -0.1550     1.7820 H     1 <1>   0.0800 
 42 H       14.7780    -0.4810     0.1280 H     1 <1>   0.0800 
 43 H       13.9000    -1.6820     1.0480 H     1 <1>   0.0800 
@<TRIPOS>BOND
  1   1   2  2   
  2   2   3  am  
  3   2   4  am  
  4   3   5  am  
  5   3   6  1   
  6   4   7  1   
  7   4   8  1   
  8   5   9  2   
  9   5  10  1   
 10   6  26  1   
 11   6  27  1   
 12   6  28  1   
 13   7  10  2   
 14   7  11  1   
 15   8  29  1   
 16   8  30  1   
 17   8  31  1   
 18  10  12  1   
 19  11  13  2   
 20  12  13  1   
 21  12  14  1   
 22  13  15  1   
 23  14  16  1   
 24  14  32  1   
 25  14  33  1   
 26  15  16  1   
 27  16  17  1   
 28  16  34  1   
 29  17  18  1   
 30  17  35  1   
 31  17  36  1   
 32  18  19  1   
 33  19  20  ar  
 34  19  21  ar  
 35  20  22  ar  
 36  20  37  1   
 37  21  23  ar  
 38  21  38  1   
 39  22  24  ar  
 40  22  39  1   
 41  23  24  ar  
 42  23  40  1   
 43  24  25  1   
 44  25  41  1   
 45  25  42  1   
 46  25  43  1   
@<TRIPOS>SUBSTRUCTURE
  1 ****  13 GROUP 4 **** **** 0

# MOE 2024.06 (io_trps.svl 2023.06)
