@<TRIPOS>MOLECULE
N,N-Dimethyl-3-(3-p-tolyl-[1,2,4]oxadiazol-5-yl)-propionamide
36 37 1 0 0 
SMALL
USER_CHARGES


@<TRIPOS>ATOM
  1 O        0.3530    -0.5190     0.8090 O.2   1 <1>  -0.5700 
  2 C        0.7640    -1.5300     0.2900 C.2   1 <1>   0.5690 
  3 N        1.9390    -1.5520    -0.4240 N.am  1 <1>  -0.6600 
  4 C       -0.0570    -2.8000     0.4470 C.3   1 <1>  -0.0990 
  5 C        2.5500    -2.7670    -1.0340 C.3   1 <1>   0.0600 
  6 C        2.7240    -0.3050    -0.6550 C.3   1 <1>   0.0600 
  7 C       -1.4520    -2.5550     1.0460 C.3   1 <1>   0.0200 
  8 C       -2.2300    -3.8500     1.1530 C.2   1 <1>   0.2980 
  9 O       -1.8690    -4.7280     2.0520 O.3   1 <1>  -0.0190 
 10 N       -3.2190    -4.1820     0.4330 N.2   1 <1>  -0.5650 
 11 N       -2.7020    -5.7070     1.8880 N.2   1 <1>  -0.4100 
 12 C       -3.5050    -5.3880     0.9340 C.2   1 <1>   0.4620 
 13 C       -4.5950    -6.2090     0.4310 C.ar  1 <1>   0.0540 
 14 C       -4.8620    -7.4690     0.9710 C.ar  1 <1>  -0.1500 
 15 C       -5.4210    -5.7800    -0.6090 C.ar  1 <1>  -0.1500 
 16 C       -5.8960    -8.2570     0.4980 C.ar  1 <1>  -0.1500 
 17 C       -6.4560    -6.5630    -1.0850 C.ar  1 <1>  -0.1500 
 18 C       -6.7020    -7.8080    -0.5330 C.ar  1 <1>  -0.1440 
 19 C       -7.8370    -8.6710    -1.0550 C.3   1 <1>  -0.0970 
 20 H        0.4860    -3.4770     1.0800 H     1 <1>   0.0800 
 21 H       -0.1780    -3.2540    -0.5200 H     1 <1>   0.0800 
 22 H        2.1450    -3.6670    -0.6110 H     1 <1>   0.0800 
 23 H        3.6120    -2.7650    -0.8590 H     1 <1>   0.0800 
 24 H        2.3710    -2.7660    -2.0950 H     1 <1>   0.0800 
 25 H        2.2010     0.5570    -0.2770 H     1 <1>   0.0800 
 26 H        2.8870    -0.1670    -1.7100 H     1 <1>   0.0800 
 27 H        3.6730    -0.3750    -0.1540 H     1 <1>   0.0800 
 28 H       -1.9960    -1.8690     0.4210 H     1 <1>   0.0800 
 29 H       -1.3640    -2.1170     2.0240 H     1 <1>   0.0800 
 30 H       -4.2490    -7.8390     1.7740 H     1 <1>   0.1500 
 31 H       -5.2500    -4.8150    -1.0530 H     1 <1>   0.1500 
 32 H       -6.0700    -9.2240     0.9380 H     1 <1>   0.1500 
 33 H       -7.0710    -6.1990    -1.8890 H     1 <1>   0.1500 
 34 H       -7.4810    -9.2940    -1.8550 H     1 <1>   0.0800 
 35 H       -8.6380    -8.0560    -1.4230 H     1 <1>   0.0800 
 36 H       -8.2230    -9.2980    -0.2710 H     1 <1>   0.0800 
@<TRIPOS>BOND
  1   1   2  2   
  2   2   3  am  
  3   2   4  1   
  4   3   5  1   
  5   3   6  1   
  6   4   7  1   
  7   4  20  1   
  8   4  21  1   
  9   5  22  1   
 10   5  23  1   
 11   5  24  1   
 12   6  25  1   
 13   6  26  1   
 14   6  27  1   
 15   7   8  1   
 16   7  28  1   
 17   7  29  1   
 18   8   9  1   
 19   8  10  2   
 20   9  11  1   
 21  10  12  1   
 22  11  12  2   
 23  12  13  1   
 24  13  14  ar  
 25  13  15  ar  
 26  14  16  ar  
 27  14  30  1   
 28  15  17  ar  
 29  15  31  1   
 30  16  18  ar  
 31  16  32  1   
 32  17  18  ar  
 33  17  33  1   
 34  18  19  1   
 35  19  34  1   
 36  19  35  1   
 37  19  36  1   
@<TRIPOS>SUBSTRUCTURE
  1 ****  10 GROUP 4 **** **** 0

# MOE 2024.06 (io_trps.svl 2023.06)
