@<TRIPOS>MOLECULE
2-Dimethylamino-4-methyl-pyrimidine-5-carboxylic acid
23 23 1 0 0 
SMALL
USER_CHARGES


@<TRIPOS>ATOM
  1 O        0.4710    -0.1350     0.4810 O.co2 1 <1>  -0.9000 
  2 C        1.4240    -0.8640     0.1590 C.2   1 <1>   0.9790 
  3 O        2.5140    -0.3220    -0.0960 O.co2 1 <1>  -0.9000 
  4 C        1.3060    -2.3020     0.0960 C.ar  1 <1>  -0.1790 
  5 C        0.1280    -3.0190    -0.0620 C.ar  1 <1>   0.1660 
  6 C        2.4510    -3.0660     0.1990 C.ar  1 <1>   0.1600 
  7 N        0.1060    -4.3300    -0.0950 N.ar  1 <1>  -0.6200 
  8 C       -1.2210    -2.3410    -0.2180 C.3   1 <1>  -0.0960 
  9 N        2.4580    -4.3760     0.1680 N.ar  1 <1>  -0.6200 
 10 C        1.2720    -4.9590     0.0250 C.ar  1 <1>   0.7200 
 11 N        1.2480    -6.3400    -0.0050 N.pl3 1 <1>  -0.8380 
 12 C       -0.0190    -7.1090     0.1240 C.3   1 <1>   0.1290 
 13 C        2.4880    -7.1460    -0.1670 C.3   1 <1>   0.1290 
 14 H        3.3970    -2.5610     0.3110 H     1 <1>   0.1500 
 15 H       -1.1620    -1.5760    -0.9700 H     1 <1>   0.0800 
 16 H       -1.5040    -1.8890     0.7150 H     1 <1>   0.0800 
 17 H       -1.9740    -3.0510    -0.5060 H     1 <1>   0.0800 
 18 H       -0.7300    -6.5630     0.7200 H     1 <1>   0.0800 
 19 H        0.1670    -8.0540     0.6020 H     1 <1>   0.0800 
 20 H       -0.4380    -7.2760    -0.8520 H     1 <1>   0.0800 
 21 H        3.2190    -6.6010    -0.7400 H     1 <1>   0.0800 
 22 H        2.2700    -8.0640    -0.6830 H     1 <1>   0.0800 
 23 H        2.9000    -7.3680     0.8020 H     1 <1>   0.0800 
@<TRIPOS>BOND
  1   1   2  ar  
  2   2   3  ar  
  3   2   4  1   
  4   4   5  ar  
  5   4   6  ar  
  6   5   7  ar  
  7   5   8  1   
  8   6   9  ar  
  9   6  14  1   
 10   7  10  ar  
 11   8  15  1   
 12   8  16  1   
 13   8  17  1   
 14   9  10  ar  
 15  10  11  1   
 16  11  12  1   
 17  11  13  1   
 18  12  18  1   
 19  12  19  1   
 20  12  20  1   
 21  13  21  1   
 22  13  22  1   
 23  13  23  1   
@<TRIPOS>SUBSTRUCTURE
  1 ****   5 GROUP 4 **** **** 0

# MOE 2024.06 (io_trps.svl 2023.06)
