@<TRIPOS>MOLECULE
1-(2-Carbamoyl-ethyl)-piperidine-3-carboxylic acid
30 30 1 0 0 
SMALL
USER_CHARGES


@<TRIPOS>ATOM
  1 O        0.5600    -2.9040    -0.7920 O.co2 1 <1>  -0.9000 
  2 C       -0.6620    -2.9550    -0.7360 C.2   1 <1>   0.9060 
  3 O       -1.3550    -3.6070    -1.5350 O.co2 1 <1>  -0.9000 
  4 C       -1.3650    -2.3540     0.4610 C.3   1 <1>  -0.1860 
  5 C       -1.8160    -3.5590     1.2750 C.3   1 <1>   0.3430 
  6 C       -2.5370    -1.4090     0.0760 C.3   1 <1>  -0.1600 
  7 N       -2.9630    -4.1410     0.5380 N.4   1 <1>  -0.9590 
  8 C       -3.8550    -1.8150     0.7640 C.3   1 <1>  -0.1600 
  9 C       -4.1950    -3.3040     0.5740 C.3   1 <1>   0.3430 
 10 C       -3.1480    -5.5920     0.7560 C.3   1 <1>   0.3430 
 11 C       -3.5510    -6.2450    -0.5590 C.3   1 <1>  -0.0990 
 12 C       -3.6790    -7.7270    -0.3350 C.2   1 <1>   0.5690 
 13 O       -4.2490    -8.1220     0.6480 O.2   1 <1>  -0.5700 
 14 N       -3.1540    -8.5880    -1.2210 N.am  1 <1>  -0.8000 
 15 H       -0.6300    -1.8110     1.0270 H     1 <1>   0.0800 
 16 H       -2.1120    -3.2660     2.2680 H     1 <1>   0.0800 
 17 H       -1.0040    -4.2670     1.3380 H     1 <1>   0.0800 
 18 H       -2.6820    -1.4320    -0.9920 H     1 <1>   0.0800 
 19 H       -2.2840    -0.3950     0.3370 H     1 <1>   0.0800 
 20 H       -2.5940    -4.0530    -0.4470 H     1 <1>   0.4500 
 21 H       -4.6640    -1.2160     0.3840 H     1 <1>   0.0800 
 22 H       -3.7800    -1.6100     1.8180 H     1 <1>   0.0800 
 23 H       -4.8390    -3.6260     1.3750 H     1 <1>   0.0800 
 24 H       -4.7240    -3.4300    -0.3570 H     1 <1>   0.0800 
 25 H       -3.8950    -5.7720     1.5120 H     1 <1>   0.0800 
 26 H       -2.2200    -6.0310     1.0840 H     1 <1>   0.0800 
 27 H       -2.8020    -6.0530    -1.3070 H     1 <1>   0.0800 
 28 H       -4.4990    -5.8680    -0.8930 H     1 <1>   0.0800 
 29 H       -3.2490    -9.5930    -1.0640 H     1 <1>   0.3700 
 30 H       -2.6480    -8.3090    -2.0640 H     1 <1>   0.3700 
@<TRIPOS>BOND
  1   1   2  ar  
  2   2   3  ar  
  3   2   4  1   
  4   4   5  1   
  5   4   6  1   
  6   4  15  1   
  7   5   7  1   
  8   5  16  1   
  9   5  17  1   
 10   6   8  1   
 11   6  18  1   
 12   6  19  1   
 13   7   9  1   
 14   7  10  1   
 15   7  20  1   
 16   8   9  1   
 17   8  21  1   
 18   8  22  1   
 19   9  23  1   
 20   9  24  1   
 21  10  11  1   
 22  10  25  1   
 23  10  26  1   
 24  11  12  1   
 25  11  27  1   
 26  11  28  1   
 27  12  13  2   
 28  12  14  am  
 29  14  29  1   
 30  14  30  1   
@<TRIPOS>SUBSTRUCTURE
  1 ****   7 GROUP 4 **** **** 0

# MOE 2024.06 (io_trps.svl 2023.06)
