@<TRIPOS>MOLECULE
8-(3-Methoxy-propyl)-1,6,7-trimethyl-3-(1-methyl-2-oxo-propyl)-1H,8H-imidazo[2,1
53 55 1 0 0 
SMALL
USER_CHARGES


@<TRIPOS>ATOM
  1 O        1.0370    -0.4460     1.5580 O.2   1 <1>  -0.5740 
  2 C        1.9050     0.3840     1.3790 C.2   1 <1>   0.6870 
  3 N        1.5600     1.6970     1.0880 N.am  1 <1>  -0.4250 
  4 N        3.2420     0.0160     1.4780 N.am  1 <1>  -0.4410 
  5 C        2.5270     2.6960     1.0530 C.2   1 <1>   0.7000 
  6 C        0.2320     1.9480     0.4270 C.3   1 <1>   0.2750 
  7 C        4.1990     0.9980     1.3270 C.2   1 <1>   0.4210 
  8 C        3.6330    -1.4040     1.7290 C.3   1 <1>   0.0530 
  9 O        2.2110     3.8730     0.9810 O.2   1 <1>  -0.5740 
 10 C        3.8950     2.3030     1.1210 C.2   1 <1>   0.2710 
 11 C        0.4310     2.4260    -1.0250 C.2   1 <1>   0.4430 
 12 C       -0.6380     2.8570     1.3140 C.3   1 <1>  -0.2460 
 13 N        5.5550     0.8470     1.3560 N.pl3 1 <1>  -0.7030 
 14 N        5.1220     2.9790     1.0110 N.pl3 1 <1>  -0.6330 
 15 O        1.4580     2.2300    -1.6100 O.2   1 <1>  -0.5740 
 16 C       -0.7200     3.1230    -1.7240 C.3   1 <1>  -0.1860 
 17 C        6.0700     2.0650     1.1470 C.cat 1 <1>   1.0690 
 18 C        5.7560     4.1760     0.7550 C.2   1 <1>   0.2340 
 19 N        7.2940     2.5890     1.0180 N.pl3 1 <1>  -0.5720 
 20 C        7.0910     3.9380     0.7610 C.2   1 <1>   0.1580 
 21 C        4.9520     5.4400     0.5230 C.3   1 <1>  -0.1090 
 22 C        8.5790     1.8550     1.1050 C.3   1 <1>   0.1610 
 23 C        8.2510     4.8920     0.5310 C.3   1 <1>  -0.1090 
 24 C        8.7350     0.9500    -0.1170 C.3   1 <1>  -0.1670 
 25 C        9.9430     0.0240     0.0370 C.3   1 <1>   0.1130 
 26 O        9.7690    -1.0530    -0.8190 O.3   1 <1>  -0.5640 
 27 C       10.2830    -0.8790    -2.1020 C.3   1 <1>   0.0320 
 28 H       -0.3000     1.0170     0.3440 H     1 <1>   0.0730 
 29 H        2.8050    -2.0690     1.5500 H     1 <1>   0.0730 
 30 H        3.9470    -1.5190     2.7520 H     1 <1>   0.0730 
 31 H        4.4350    -1.6910     1.0720 H     1 <1>   0.0730 
 32 H       -0.2710     3.8670     1.3280 H     1 <1>   0.0730 
 33 H       -0.6660     2.4750     2.3190 H     1 <1>   0.0730 
 34 H       -1.6470     2.8750     0.9420 H     1 <1>   0.0730 
 35 H        6.0940    -0.0130     1.4330 H     1 <1>   0.4450 
 36 H       -1.6110     2.5260    -1.6590 H     1 <1>   0.0730 
 37 H       -0.4790     3.2700    -2.7610 H     1 <1>   0.0730 
 38 H       -0.8970     4.0830    -1.2760 H     1 <1>   0.0730 
 39 H        4.3530     5.6590     1.3890 H     1 <1>   0.0730 
 40 H        4.2970     5.3080    -0.3210 H     1 <1>   0.0730 
 41 H        5.5940     6.2790     0.3290 H     1 <1>   0.0730 
 42 H        8.5830     1.2620     2.0050 H     1 <1>   0.0730 
 43 H        9.4040     2.5450     1.1590 H     1 <1>   0.0730 
 44 H        8.8400     4.5640    -0.3070 H     1 <1>   0.0730 
 45 H        8.8770     4.9300     1.4050 H     1 <1>   0.0730 
 46 H        7.8970     5.8860     0.3260 H     1 <1>   0.0730 
 47 H        8.8590     1.5520    -1.0000 H     1 <1>   0.0730 
 48 H        7.8610     0.3350    -0.2300 H     1 <1>   0.0730 
 49 H        9.9840    -0.3810     1.0340 H     1 <1>   0.0730 
 50 H       10.8750     0.5220    -0.1750 H     1 <1>   0.0730 
 51 H       10.0810    -1.7720    -2.6670 H     1 <1>   0.0730 
 52 H       11.3470    -0.7270    -2.0410 H     1 <1>   0.0730 
 53 H        9.8050    -0.0380    -2.5720 H     1 <1>   0.0730 
@<TRIPOS>BOND
  1   1   2  2   
  2   2   3  am  
  3   2   4  am  
  4   3   5  am  
  5   3   6  1   
  6   4   7  1   
  7   4   8  1   
  8   5   9  2   
  9   5  10  1   
 10   6  11  1   
 11   6  12  1   
 12   6  28  1   
 13   7  10  2   
 14   7  13  1   
 15   8  29  1   
 16   8  30  1   
 17   8  31  1   
 18  10  14  1   
 19  11  15  2   
 20  11  16  1   
 21  12  32  1   
 22  12  33  1   
 23  12  34  1   
 24  13  17  ar  
 25  13  35  1   
 26  14  17  ar  
 27  14  18  1   
 28  16  36  1   
 29  16  37  1   
 30  16  38  1   
 31  17  19  ar  
 32  18  20  2   
 33  18  21  1   
 34  19  20  1   
 35  19  22  1   
 36  20  23  1   
 37  21  39  1   
 38  21  40  1   
 39  21  41  1   
 40  22  24  1   
 41  22  42  1   
 42  22  43  1   
 43  23  44  1   
 44  23  45  1   
 45  23  46  1   
 46  24  25  1   
 47  24  47  1   
 48  24  48  1   
 49  25  26  1   
 50  25  49  1   
 51  25  50  1   
 52  26  27  1   
 53  27  51  1   
 54  27  52  1   
 55  27  53  1   
@<TRIPOS>SUBSTRUCTURE
  1 ****  10 GROUP 4 **** **** 0

# MOE 2024.06 (io_trps.svl 2023.06)
