@<TRIPOS>MOLECULE
(2,5-Dimethyl-3-phenyl-pyrazolo[1,5-a]pyrimidin-7-yl)-(2-methoxy-ethyl)-amine
43 45 1 0 0 
SMALL
USER_CHARGES


@<TRIPOS>ATOM
  1 O       -0.8190    -0.2850     0.0070 O.3   1 <1>  -0.5600 
  2 C       -2.1320    -0.7040    -0.1160 C.3   1 <1>   0.1200 
  3 C        0.0370    -0.7670    -0.9820 C.3   1 <1>   0.0400 
  4 C       -2.8990    -0.0920     1.0570 C.3   1 <1>   0.1860 
  5 N       -4.3430    -0.4100     0.9650 N.pl3 1 <1>  -0.1460 
  6 C       -5.3660     0.3750     0.5820 C.cat 1 <1>   0.3950 
  7 N       -6.6220    -0.1950     0.6070 N.pl3 1 <1>   0.5610 
  8 C       -5.2860     1.7130     0.1530 C.2   1 <1>  -0.1360 
  9 N       -6.9200    -1.4720     0.9730 N.2   1 <1>  -0.7070 
 10 C       -7.7450     0.4890     0.2430 C.2   1 <1>  -0.0680 
 11 C       -6.4130     2.4100    -0.2210 C.2   1 <1>  -0.0380 
 12 C       -8.2080    -1.5520     0.8380 C.2   1 <1>   0.1080 
 13 N       -7.6210     1.8110    -0.1770 N.pl3 1 <1>  -0.5840 
 14 C       -8.7970    -0.3620     0.3810 C.2   1 <1>  -0.0540 
 15 C       -6.3690     3.8500    -0.6930 C.3   1 <1>  -0.1020 
 16 C       -8.9740    -2.8190     1.1580 C.3   1 <1>  -0.0590 
 17 C      -10.1870    -0.0950     0.1200 C.ar  1 <1>   0.0540 
 18 C      -10.9050    -0.8430    -0.8100 C.ar  1 <1>  -0.1500 
 19 C      -10.8520     0.9290     0.7890 C.ar  1 <1>  -0.1500 
 20 C      -12.2390    -0.5790    -1.0620 C.ar  1 <1>  -0.1500 
 21 C      -12.1860     1.1970     0.5410 C.ar  1 <1>  -0.1500 
 22 C      -12.8820     0.4420    -0.3860 C.ar  1 <1>  -0.1500 
 23 H       -2.1520    -1.7810    -0.0780 H     1 <1>   0.0800 
 24 H       -2.5120    -0.3490    -1.0600 H     1 <1>   0.0800 
 25 H        1.0230    -0.3820    -0.7890 H     1 <1>   0.0800 
 26 H       -0.2990    -0.4260    -1.9470 H     1 <1>   0.0800 
 27 H        0.0580    -1.8430    -0.9460 H     1 <1>   0.0800 
 28 H       -2.7550     0.9740     1.0530 H     1 <1>   0.0800 
 29 H       -2.5090    -0.4830     1.9810 H     1 <1>   0.0800 
 30 H       -4.5960    -1.3720     1.2450 H     1 <1>   0.4000 
 31 H       -4.3320     2.2060     0.1100 H     1 <1>   0.1500 
 32 H       -8.4800     2.3070    -0.4660 H     1 <1>   0.4000 
 33 H       -6.7580     3.9220    -1.6930 H     1 <1>   0.0800 
 34 H       -5.3630     4.2290    -0.6920 H     1 <1>   0.0800 
 35 H       -6.9660     4.4690    -0.0460 H     1 <1>   0.0800 
 36 H       -8.4400    -3.3980     1.8900 H     1 <1>   0.0800 
 37 H       -9.0920    -3.4080     0.2680 H     1 <1>   0.0800 
 38 H       -9.9450    -2.5790     1.5520 H     1 <1>   0.0800 
 39 H      -10.4110    -1.6340    -1.3450 H     1 <1>   0.1500 
 40 H      -10.3180     1.5160     1.5150 H     1 <1>   0.1500 
 41 H      -12.7780    -1.1670    -1.7850 H     1 <1>   0.1500 
 42 H      -12.6850     1.9910     1.0700 H     1 <1>   0.1500 
 43 H      -13.9200     0.6490    -0.5810 H     1 <1>   0.1500 
@<TRIPOS>BOND
  1   1   2  1   
  2   1   3  1   
  3   2   4  1   
  4   2  23  1   
  5   2  24  1   
  6   3  25  1   
  7   3  26  1   
  8   3  27  1   
  9   4   5  1   
 10   4  28  1   
 11   4  29  1   
 12   5   6  ar  
 13   5  30  1   
 14   6   7  ar  
 15   6   8  1   
 16   7   9  1   
 17   7  10  1   
 18   8  11  2   
 19   8  31  1   
 20   9  12  2   
 21  10  13  1   
 22  10  14  2   
 23  11  13  1   
 24  11  15  1   
 25  12  14  1   
 26  12  16  1   
 27  13  32  1   
 28  14  17  1   
 29  15  33  1   
 30  15  34  1   
 31  15  35  1   
 32  16  36  1   
 33  16  37  1   
 34  16  38  1   
 35  17  18  ar  
 36  17  19  ar  
 37  18  20  ar  
 38  18  39  1   
 39  19  21  ar  
 40  19  40  1   
 41  20  22  ar  
 42  20  41  1   
 43  21  22  ar  
 44  21  42  1   
 45  22  43  1   
@<TRIPOS>SUBSTRUCTURE
  1 ****  10 GROUP 4 **** **** 0

# MOE 2024.06 (io_trps.svl 2023.06)
