@<TRIPOS>MOLECULE
1-Methanesulfonyl-piperidine-3-carboxylic acid (3-chloro-4-methoxy-phenyl)-amide
41 42 1 0 0 
SMALL
USER_CHARGES


@<TRIPOS>ATOM
  1 CL      -0.4610     0.0540    -1.4410 Cl    1 <1>  -0.1770 
  2 C       -1.8270     0.9450    -0.8040 C.ar  1 <1>   0.1770 
  3 C       -1.6470     2.2080    -0.2520 C.ar  1 <1>   0.0830 
  4 C       -3.0730     0.3530    -0.8680 C.ar  1 <1>  -0.1500 
  5 O       -0.3880     2.7290    -0.2210 O.3   1 <1>  -0.3630 
  6 C       -2.7650     2.8780     0.2380 C.ar  1 <1>  -0.1500 
  7 C       -4.1890     1.0170    -0.3760 C.ar  1 <1>   0.1170 
  8 C       -0.1310     3.9870     0.3630 C.3   1 <1>   0.0400 
  9 C       -4.0150     2.2850     0.1720 C.ar  1 <1>  -0.1500 
 10 N       -5.4410     0.3880    -0.4700 N.am  1 <1>  -0.5470 
 11 C       -6.5860     0.5720     0.2560 C.2   1 <1>   0.5690 
 12 O       -6.6760     1.3460     1.1780 O.2   1 <1>  -0.5700 
 13 C       -7.8040    -0.2580    -0.1170 C.3   1 <1>  -0.0190 
 14 C       -9.0330     0.6530    -0.2200 C.3   1 <1>   0.1960 
 15 C       -8.0470    -1.3920     0.8960 C.3   1 <1>  -0.1600 
 16 N      -10.2220    -0.1350    -0.5630 N.am  1 <1>  -0.8490 
 17 C       -9.3430    -2.1390     0.5510 C.3   1 <1>  -0.1600 
 18 S      -11.5550     0.7910    -1.0530 S.o2  1 <1>   1.3330 
 19 C      -10.5320    -1.1820     0.4130 C.3   1 <1>   0.1960 
 20 O      -11.0960     1.7290    -2.0510 O.2   1 <1>  -0.6500 
 21 O      -12.6440    -0.1130    -1.3380 O.2   1 <1>  -0.6500 
 22 C      -12.0000     1.7260     0.3990 C.3   1 <1>  -0.1350 
 23 H       -3.1620    -0.6260    -1.3000 H     1 <1>   0.1500 
 24 H       -2.6870     3.8560     0.6730 H     1 <1>   0.1500 
 25 H        0.9250     4.1790     0.2880 H     1 <1>   0.0800 
 26 H       -0.4240     3.9600     1.3970 H     1 <1>   0.0800 
 27 H       -0.6770     4.7410    -0.1750 H     1 <1>   0.0800 
 28 H       -4.8640     2.8250     0.5520 H     1 <1>   0.1500 
 29 H       -5.4890    -0.3510    -1.1700 H     1 <1>   0.3700 
 30 H       -7.6440    -0.6880    -1.0890 H     1 <1>   0.0800 
 31 H       -8.8530     1.3920    -0.9830 H     1 <1>   0.0800 
 32 H       -9.1890     1.1640     0.7160 H     1 <1>   0.0800 
 33 H       -8.1270    -0.9760     1.8860 H     1 <1>   0.0800 
 34 H       -7.2170    -2.0770     0.8900 H     1 <1>   0.0800 
 35 H       -9.5590    -2.8650     1.3160 H     1 <1>   0.0800 
 36 H       -9.2230    -2.6700    -0.3770 H     1 <1>   0.0800 
 37 H      -11.3920    -1.7440     0.0850 H     1 <1>   0.0800 
 38 H      -10.7590    -0.7400     1.3690 H     1 <1>   0.0800 
 39 H      -11.1910     2.3590     0.7030 H     1 <1>   0.0800 
 40 H      -12.2580     1.0690     1.2050 H     1 <1>   0.0800 
 41 H      -12.8490     2.3440     0.1810 H     1 <1>   0.0800 
@<TRIPOS>BOND
  1   1   2  1   
  2   2   3  ar  
  3   2   4  ar  
  4   3   5  1   
  5   3   6  ar  
  6   4   7  ar  
  7   4  23  1   
  8   5   8  1   
  9   6   9  ar  
 10   6  24  1   
 11   7   9  ar  
 12   7  10  1   
 13   8  25  1   
 14   8  26  1   
 15   8  27  1   
 16   9  28  1   
 17  10  11  am  
 18  10  29  1   
 19  11  12  2   
 20  11  13  1   
 21  13  14  1   
 22  13  15  1   
 23  13  30  1   
 24  14  16  1   
 25  14  31  1   
 26  14  32  1   
 27  15  17  1   
 28  15  33  1   
 29  15  34  1   
 30  16  18  am  
 31  16  19  1   
 32  17  19  1   
 33  17  35  1   
 34  17  36  1   
 35  18  20  2   
 36  18  21  2   
 37  18  22  1   
 38  19  37  1   
 39  19  38  1   
 40  22  39  1   
 41  22  40  1   
 42  22  41  1   
@<TRIPOS>SUBSTRUCTURE
  1 ****  11 GROUP 4 **** **** 0

# MOE 2024.06 (io_trps.svl 2023.06)
