@<TRIPOS>MOLECULE
[4-(4-Chloro-benzenesulfonyl)-piperazin-1-yl]-piperidin-1-yl-methanone
46 48 1 0 0 
SMALL
USER_CHARGES


@<TRIPOS>ATOM
  1 CL      -1.5210     1.0630    -3.1760 Cl    1 <1>  -0.1770 
  2 C       -2.7200     0.7840    -1.9410 C.ar  1 <1>   0.1770 
  3 C       -3.3210     1.8620    -1.3220 C.ar  1 <1>  -0.1500 
  4 C       -3.0550    -0.5110    -1.5990 C.ar  1 <1>  -0.1500 
  5 C       -4.2750     1.6340    -0.3430 C.ar  1 <1>  -0.1500 
  6 C       -4.0100    -0.7250    -0.6190 C.ar  1 <1>  -0.1500 
  7 C       -4.6360     0.3390     0.0250 C.ar  1 <1>  -0.0090 
  8 S       -5.9000     0.0390     1.2940 S.o2  1 <1>   1.4470 
  9 O       -6.4310     1.2950     1.7770 O.2   1 <1>  -0.6500 
 10 O       -5.3970    -0.9330     2.2400 O.2   1 <1>  -0.6500 
 11 N       -7.1400    -0.7220     0.4270 N.am  1 <1>  -0.8490 
 12 C       -8.1250    -1.3310     1.3390 C.3   1 <1>   0.1960 
 13 C       -7.8310     0.2020    -0.4950 C.3   1 <1>   0.1960 
 14 C       -9.2270    -2.0910     0.5780 C.3   1 <1>   0.1400 
 15 C       -8.8950    -0.5300    -1.3280 C.3   1 <1>   0.1400 
 16 N       -9.8770    -1.2130    -0.4380 N.am  1 <1>  -0.6600 
 17 C      -11.0830    -0.6190    -0.1660 C.2   1 <1>   0.6900 
 18 O      -11.2020     0.5830    -0.3290 O.2   1 <1>  -0.5700 
 19 N      -12.1380    -1.3610     0.3050 N.am  1 <1>  -0.6600 
 20 C      -13.2980    -0.7060     0.9690 C.3   1 <1>   0.1400 
 21 C      -12.3750    -2.7680    -0.1170 C.3   1 <1>   0.1400 
 22 C      -14.5240    -0.7610     0.0520 C.3   1 <1>  -0.1600 
 23 C      -13.6020    -2.8380    -1.0340 C.3   1 <1>  -0.1600 
 24 C      -14.8370    -2.1980    -0.3850 C.3   1 <1>  -0.1600 
 25 H       -3.0440     2.8630    -1.6020 H     1 <1>   0.1500 
 26 H       -2.5720    -1.3370    -2.0920 H     1 <1>   0.1500 
 27 H       -4.7450     2.4730     0.1440 H     1 <1>   0.1500 
 28 H       -4.2780    -1.7330    -0.3450 H     1 <1>   0.1500 
 29 H       -8.5800    -0.5670     1.9490 H     1 <1>   0.0800 
 30 H       -7.6290    -2.0250     1.9970 H     1 <1>   0.0800 
 31 H       -7.1180     0.6480    -1.1660 H     1 <1>   0.0800 
 32 H       -8.3100     0.9950     0.0580 H     1 <1>   0.0800 
 33 H       -9.9560    -2.4450     1.2850 H     1 <1>   0.0800 
 34 H       -8.7970    -2.9440     0.0850 H     1 <1>   0.0800 
 35 H       -8.4190    -1.2600    -1.9570 H     1 <1>   0.0800 
 36 H       -9.4030     0.1750    -1.9640 H     1 <1>   0.0800 
 37 H      -13.0660     0.3190     1.2060 H     1 <1>   0.0800 
 38 H      -13.5070    -1.2200     1.8910 H     1 <1>   0.0800 
 39 H      -12.5360    -3.3730     0.7580 H     1 <1>   0.0800 
 40 H      -11.5210    -3.1550    -0.6440 H     1 <1>   0.0800 
 41 H      -14.3330    -0.1490    -0.8120 H     1 <1>   0.0800 
 42 H      -15.3710    -0.3440     0.5670 H     1 <1>   0.0800 
 43 H      -13.8100    -3.8660    -1.2720 H     1 <1>   0.0800 
 44 H      -13.3730    -2.3290    -1.9540 H     1 <1>   0.0800 
 45 H      -15.6550    -2.1950    -1.0850 H     1 <1>   0.0800 
 46 H      -15.1330    -2.7770     0.4720 H     1 <1>   0.0800 
@<TRIPOS>BOND
  1   1   2  1   
  2   2   3  ar  
  3   2   4  ar  
  4   3   5  ar  
  5   3  25  1   
  6   4   6  ar  
  7   4  26  1   
  8   5   7  ar  
  9   5  27  1   
 10   6   7  ar  
 11   6  28  1   
 12   7   8  1   
 13   8   9  2   
 14   8  10  2   
 15   8  11  am  
 16  11  12  1   
 17  11  13  1   
 18  12  14  1   
 19  12  29  1   
 20  12  30  1   
 21  13  15  1   
 22  13  31  1   
 23  13  32  1   
 24  14  16  1   
 25  14  33  1   
 26  14  34  1   
 27  15  16  1   
 28  15  35  1   
 29  15  36  1   
 30  16  17  am  
 31  17  18  2   
 32  17  19  am  
 33  19  20  1   
 34  19  21  1   
 35  20  22  1   
 36  20  37  1   
 37  20  38  1   
 38  21  23  1   
 39  21  39  1   
 40  21  40  1   
 41  22  24  1   
 42  22  41  1   
 43  22  42  1   
 44  23  24  1   
 45  23  43  1   
 46  23  44  1   
 47  24  45  1   
 48  24  46  1   
@<TRIPOS>SUBSTRUCTURE
  1 ****  13 GROUP 4 **** **** 0

# MOE 2024.06 (io_trps.svl 2023.06)
