@<TRIPOS>MOLECULE
(1-Cyclohexyl-1H-benzoimidazol-5-yl)-pyridin-4-ylmethyl-amine
45 48 1 0 0 
SMALL
USER_CHARGES


@<TRIPOS>ATOM
  1 N        1.7680    -0.9560     2.7240 N.ar  1 <1>  -0.6200 
  2 C        2.4710    -1.9200     2.1520 C.ar  1 <1>   0.1600 
  3 C        2.0140     0.2640     2.2760 C.ar  1 <1>   0.1600 
  4 C        3.4090    -1.7230     1.1520 C.ar  1 <1>  -0.1500 
  5 C        2.9290     0.5690     1.2820 C.ar  1 <1>  -0.1500 
  6 C        3.6550    -0.4450     0.6900 C.ar  1 <1>  -0.1430 
  7 C        4.6760    -0.1830    -0.4010 C.3   1 <1>   0.3530 
  8 N        6.0150    -0.2280     0.2180 N.pl3 1 <1>  -0.8690 
  9 C        6.7970    -1.3440    -0.0710 C.ar  1 <1>   0.1000 
 10 C        7.1750    -1.6460    -1.3640 C.ar  1 <1>  -0.1500 
 11 C        7.2080    -2.1800     0.9790 C.ar  1 <1>  -0.1500 
 12 C        7.9380    -2.7830    -1.6130 C.ar  1 <1>   0.2270 
 13 C        7.9680    -3.3030     0.7430 C.ar  1 <1>  -0.1500 
 14 N        8.3940    -3.2590    -2.8040 N.2   1 <1>  -0.5650 
 15 C        8.3320    -3.6050    -0.5730 C.ar  1 <1>  -0.1520 
 16 C        9.0410    -4.3250    -2.4860 C.2   1 <1>   0.0360 
 17 N        9.0550    -4.6090    -1.1570 N.pl3 1 <1>   0.0480 
 18 C        9.7340    -5.7760    -0.5390 C.3   1 <1>   0.1760 
 19 C        8.7220    -6.7030     0.1550 C.3   1 <1>  -0.1600 
 20 C       10.8490    -5.3240     0.4210 C.3   1 <1>  -0.1600 
 21 C        9.4260    -7.9040     0.8040 C.3   1 <1>  -0.1600 
 22 C       11.5430    -6.5310     1.0680 C.3   1 <1>  -0.1600 
 23 C       10.5290    -7.4470     1.7680 C.3   1 <1>  -0.1600 
 24 H        2.2910    -2.9230     2.4990 H     1 <1>   0.1500 
 25 H        1.4560     1.0670     2.7280 H     1 <1>   0.1500 
 26 H        3.9430    -2.5620     0.7430 H     1 <1>   0.1500 
 27 H        3.0670     1.5920     0.9820 H     1 <1>   0.1500 
 28 H        4.5200     0.7860    -0.8420 H     1 <1>   0.0800 
 29 H        4.5870    -0.9280    -1.1740 H     1 <1>   0.0800 
 30 H        5.8990    -0.0910     1.2270 H     1 <1>   0.4000 
 31 H        6.8990    -1.0190    -2.1890 H     1 <1>   0.1500 
 32 H        6.9160    -1.9280     1.9810 H     1 <1>   0.1500 
 33 H        8.2760    -3.9340     1.5560 H     1 <1>   0.1500 
 34 H        9.5400    -4.9560    -3.2000 H     1 <1>   0.1500 
 35 H       10.1960    -6.3350    -1.3330 H     1 <1>   0.0800 
 36 H        8.0070    -7.0580    -0.5660 H     1 <1>   0.0800 
 37 H        8.1900    -6.1620     0.9170 H     1 <1>   0.0800 
 38 H       10.4370    -4.7060     1.1980 H     1 <1>   0.0800 
 39 H       11.5760    -4.7440    -0.1200 H     1 <1>   0.0800 
 40 H        9.8580    -8.5240     0.0370 H     1 <1>   0.0800 
 41 H        8.7050    -8.4980     1.3390 H     1 <1>   0.0800 
 42 H       12.2700    -6.1870     1.7840 H     1 <1>   0.0800 
 43 H       12.0670    -7.0930     0.3130 H     1 <1>   0.0800 
 44 H       11.0380    -8.3080     2.1660 H     1 <1>   0.0800 
 45 H       10.0840    -6.9190     2.5950 H     1 <1>   0.0800 
@<TRIPOS>BOND
  1   1   2  ar  
  2   1   3  ar  
  3   2   4  ar  
  4   2  24  1   
  5   3   5  ar  
  6   3  25  1   
  7   4   6  ar  
  8   4  26  1   
  9   5   6  ar  
 10   5  27  1   
 11   6   7  1   
 12   7   8  1   
 13   7  28  1   
 14   7  29  1   
 15   8   9  1   
 16   8  30  1   
 17   9  10  ar  
 18   9  11  ar  
 19  10  12  ar  
 20  10  31  1   
 21  11  13  ar  
 22  11  32  1   
 23  12  14  1   
 24  12  15  ar  
 25  13  15  ar  
 26  13  33  1   
 27  14  16  2   
 28  15  17  1   
 29  16  17  1   
 30  16  34  1   
 31  17  18  1   
 32  18  19  1   
 33  18  20  1   
 34  18  35  1   
 35  19  21  1   
 36  19  36  1   
 37  19  37  1   
 38  20  22  1   
 39  20  38  1   
 40  20  39  1   
 41  21  23  1   
 42  21  40  1   
 43  21  41  1   
 44  22  23  1   
 45  22  42  1   
 46  22  43  1   
 47  23  44  1   
 48  23  45  1   
@<TRIPOS>SUBSTRUCTURE
  1 ****  13 GROUP 4 **** **** 0

# MOE 2024.06 (io_trps.svl 2023.06)
