@<TRIPOS>MOLECULE
1,3-Dimethyl-7-m-tolyloxymethyl-6,7-dihydro-1H-oxazolo[2,3-f]purine-2,4-dione
43 46 1 0 0 
SMALL
USER_CHARGES


@<TRIPOS>ATOM
  1 O        0.3490     0.2570    -0.3450 O.2   1 <1>  -0.5700 
  2 C        1.3800     0.9030    -0.4400 C.2   1 <1>   0.6900 
  3 N        1.3740     2.2520    -0.0950 N.am  1 <1>  -0.4200 
  4 N        2.5410     0.2950    -0.8900 N.am  1 <1>  -0.4230 
  5 C        2.5190     3.0180    -0.2260 C.2   1 <1>   0.7150 
  6 C        0.1060     2.8740     0.3860 C.3   1 <1>   0.0600 
  7 C        3.6960     1.0560    -1.0140 C.2   1 <1>   0.2900 
  8 C        2.6000    -1.1410    -1.2710 C.3   1 <1>   0.0600 
  9 O        2.5310     4.2050     0.0520 O.2   1 <1>  -0.5700 
 10 C        3.6810     2.3720    -0.6950 C.2   1 <1>  -0.2370 
 11 N        4.9040     0.6350    -1.4350 N.2   1 <1>  -0.5650 
 12 N        4.9400     2.8020    -0.9310 N.pl3 1 <1>   0.0480 
 13 C        5.5920     1.7320    -1.3600 C.2   1 <1>   0.2490 
 14 C        5.8140     3.9570    -0.8850 C.3   1 <1>   0.0960 
 15 O        6.8760     1.9710    -1.6300 O.3   1 <1>  -0.3430 
 16 C        7.1690     3.3220    -1.2750 C.3   1 <1>   0.2000 
 17 C        8.1730     3.3450    -0.1130 C.3   1 <1>   0.1200 
 18 O        9.4410     2.9000    -0.5510 O.3   1 <1>  -0.3630 
 19 C        9.9800     1.7500    -0.0780 C.ar  1 <1>   0.0820 
 20 C       11.3550     1.7180     0.0930 C.ar  1 <1>  -0.1500 
 21 C        9.2230     0.6240     0.2300 C.ar  1 <1>  -0.1500 
 22 C       11.9800     0.5830     0.5840 C.ar  1 <1>  -0.1440 
 23 C        9.8440    -0.5110     0.7200 C.ar  1 <1>  -0.1500 
 24 C       11.2170    -0.5300     0.8990 C.ar  1 <1>  -0.1500 
 25 C       13.4860     0.5510     0.7740 C.3   1 <1>  -0.0970 
 26 H       -0.3960     2.2060     1.0650 H     1 <1>   0.0800 
 27 H       -0.5390     3.0660    -0.4540 H     1 <1>   0.0800 
 28 H        0.2990     3.7990     0.9010 H     1 <1>   0.0800 
 29 H        1.6640    -1.6340    -1.0760 H     1 <1>   0.0800 
 30 H        3.3750    -1.6280    -0.7060 H     1 <1>   0.0800 
 31 H        2.8290    -1.2220    -2.3180 H     1 <1>   0.0800 
 32 H        5.8190     4.3850     0.1010 H     1 <1>   0.0800 
 33 H        5.4970     4.6850    -1.6090 H     1 <1>   0.0800 
 34 H        7.5870     3.8180    -2.1330 H     1 <1>   0.0800 
 35 H        7.8340     2.7510     0.7180 H     1 <1>   0.0800 
 36 H        8.3070     4.3560     0.2280 H     1 <1>   0.0800 
 37 H       11.9270     2.5900    -0.1620 H     1 <1>   0.1500 
 38 H        8.1600     0.6120     0.0820 H     1 <1>   0.1500 
 39 H        9.2590    -1.3820     0.9580 H     1 <1>   0.1500 
 40 H       11.6900    -1.4180     1.2790 H     1 <1>   0.1500 
 41 H       13.8910     1.5470     0.7790 H     1 <1>   0.0800 
 42 H       13.9410    -0.0040    -0.0270 H     1 <1>   0.0800 
 43 H       13.7320     0.0790     1.7090 H     1 <1>   0.0800 
@<TRIPOS>BOND
  1   1   2  2   
  2   2   3  am  
  3   2   4  am  
  4   3   5  am  
  5   3   6  1   
  6   4   7  1   
  7   4   8  1   
  8   5   9  2   
  9   5  10  1   
 10   6  26  1   
 11   6  27  1   
 12   6  28  1   
 13   7  10  2   
 14   7  11  1   
 15   8  29  1   
 16   8  30  1   
 17   8  31  1   
 18  10  12  1   
 19  11  13  2   
 20  12  13  1   
 21  12  14  1   
 22  13  15  1   
 23  14  16  1   
 24  14  32  1   
 25  14  33  1   
 26  15  16  1   
 27  16  17  1   
 28  16  34  1   
 29  17  18  1   
 30  17  35  1   
 31  17  36  1   
 32  18  19  1   
 33  19  20  ar  
 34  19  21  ar  
 35  20  22  ar  
 36  20  37  1   
 37  21  23  ar  
 38  21  38  1   
 39  22  24  ar  
 40  22  25  1   
 41  23  24  ar  
 42  23  39  1   
 43  24  40  1   
 44  25  41  1   
 45  25  42  1   
 46  25  43  1   
@<TRIPOS>SUBSTRUCTURE
  1 ****  13 GROUP 4 **** **** 0

# MOE 2024.06 (io_trps.svl 2023.06)
