@<TRIPOS>MOLECULE
1-(2,6-Dimethyl-phenyl)-5-oxo-pyrrolidine-3-carboxylic acid (5-chloro-2-methoxy-
47 49 1 0 0 
SMALL
USER_CHARGES


@<TRIPOS>ATOM
  1 CL       1.0710    -3.4860    -2.7270 Cl    1 <1>  -0.1770 
  2 C        0.3170    -3.4720    -1.1520 C.ar  1 <1>   0.1770 
  3 C       -0.9900    -3.8960    -1.0240 C.ar  1 <1>  -0.1500 
  4 C        1.0460    -3.0350    -0.0630 C.ar  1 <1>  -0.1500 
  5 C       -1.6010    -3.8900     0.2260 C.ar  1 <1>   0.1170 
  6 C        0.4510    -3.0230     1.1870 C.ar  1 <1>  -0.1500 
  7 N       -2.9280    -4.3050     0.4420 N.am  1 <1>  -0.5470 
  8 C       -0.8670    -3.4480     1.3360 C.ar  1 <1>   0.0830 
  9 C       -3.9080    -4.7740    -0.3850 C.2   1 <1>   0.5690 
 10 O       -1.5080    -3.4590     2.5450 O.3   1 <1>  -0.3630 
 11 O       -3.7710    -4.9140    -1.5750 O.2   1 <1>  -0.5700 
 12 C       -5.2490    -5.1260     0.2380 C.3   1 <1>  -0.0190 
 13 C       -0.8560    -3.0300     3.7230 C.3   1 <1>   0.0400 
 14 C       -5.8320    -6.4440    -0.2910 C.3   1 <1>   0.1400 
 15 C       -6.3350    -4.0720    -0.0330 C.3   1 <1>  -0.0990 
 16 N       -7.2870    -6.2170    -0.2950 N.am  1 <1>  -0.4770 
 17 C       -7.5850    -4.8970    -0.1510 C.2   1 <1>   0.5690 
 18 C       -8.1790    -7.2900    -0.4590 C.ar  1 <1>   0.1170 
 19 O       -8.6830    -4.4030    -0.1010 O.2   1 <1>  -0.5700 
 20 C       -8.5280    -7.7290    -1.7390 C.ar  1 <1>  -0.1430 
 21 C       -8.7100    -7.9400     0.6580 C.ar  1 <1>  -0.1430 
 22 C       -9.3730    -8.8160    -1.8880 C.ar  1 <1>  -0.1500 
 23 C       -8.0070    -7.0260    -2.9860 C.3   1 <1>  -0.0970 
 24 C       -9.5540    -9.0250     0.4890 C.ar  1 <1>  -0.1500 
 25 C       -8.3870    -7.4690     2.0710 C.3   1 <1>  -0.0970 
 26 C       -9.8830    -9.4650    -0.7790 C.ar  1 <1>  -0.1500 
 27 H       -1.5110    -4.2260    -1.9020 H     1 <1>   0.1500 
 28 H        2.0620    -2.7100    -0.1970 H     1 <1>   0.1500 
 29 H        1.0330    -2.6800     2.0220 H     1 <1>   0.1500 
 30 H       -3.1770    -4.2140     1.4290 H     1 <1>   0.3700 
 31 H       -5.1320    -5.2320     1.3010 H     1 <1>   0.0800 
 32 H       -1.5470    -3.1240     4.5420 H     1 <1>   0.0800 
 33 H       -0.5660    -2.0000     3.6080 H     1 <1>   0.0800 
 34 H        0.0010    -3.6550     3.8980 H     1 <1>   0.0800 
 35 H       -5.5780    -7.2760     0.3430 H     1 <1>   0.0800 
 36 H       -5.5100    -6.6470    -1.2970 H     1 <1>   0.0800 
 37 H       -6.1700    -3.5670    -0.9680 H     1 <1>   0.0800 
 38 H       -6.4170    -3.3570     0.7650 H     1 <1>   0.0800 
 39 H       -9.6440    -9.1630    -2.8690 H     1 <1>   0.1500 
 40 H       -8.1860    -5.9680    -2.9130 H     1 <1>   0.0800 
 41 H       -8.5020    -7.3880    -3.8690 H     1 <1>   0.0800 
 42 H       -6.9520    -7.1960    -3.0930 H     1 <1>   0.0800 
 43 H       -9.9670    -9.5320     1.3430 H     1 <1>   0.1500 
 44 H       -7.3310    -7.5440     2.2520 H     1 <1>   0.0800 
 45 H       -8.9030    -8.0610     2.8040 H     1 <1>   0.0800 
 46 H       -8.6920    -6.4440     2.1880 H     1 <1>   0.0800 
 47 H      -10.5400   -10.3080    -0.9030 H     1 <1>   0.1500 
@<TRIPOS>BOND
  1   1   2  1   
  2   2   3  ar  
  3   2   4  ar  
  4   3   5  ar  
  5   3  27  1   
  6   4   6  ar  
  7   4  28  1   
  8   5   7  1   
  9   5   8  ar  
 10   6   8  ar  
 11   6  29  1   
 12   7   9  am  
 13   7  30  1   
 14   8  10  1   
 15   9  11  2   
 16   9  12  1   
 17  10  13  1   
 18  12  14  1   
 19  12  15  1   
 20  12  31  1   
 21  13  32  1   
 22  13  33  1   
 23  13  34  1   
 24  14  16  1   
 25  14  35  1   
 26  14  36  1   
 27  15  17  1   
 28  15  37  1   
 29  15  38  1   
 30  16  17  am  
 31  16  18  1   
 32  17  19  2   
 33  18  20  ar  
 34  18  21  ar  
 35  20  22  ar  
 36  20  23  1   
 37  21  24  ar  
 38  21  25  1   
 39  22  26  ar  
 40  22  39  1   
 41  23  40  1   
 42  23  41  1   
 43  23  42  1   
 44  24  26  ar  
 45  24  43  1   
 46  25  44  1   
 47  25  45  1   
 48  25  46  1   
 49  26  47  1   
@<TRIPOS>SUBSTRUCTURE
  1 ****  12 GROUP 4 **** **** 0

# MOE 2024.06 (io_trps.svl 2023.06)
