@<TRIPOS>MOLECULE
N-Cyclohexyl-2-piperazin-1-yl-acetamide
40 41 1 0 0 
SMALL
USER_CHARGES


@<TRIPOS>ATOM
  1 O        0.1810    -1.2830     1.4170 O.2   1 <1>  -0.5700 
  2 C        0.0360    -1.8330     0.3510 C.2   1 <1>   0.5690 
  3 N        1.0530    -1.9690    -0.5490 N.am  1 <1>  -0.7300 
  4 C       -1.3500    -2.3900    -0.0250 C.3   1 <1>   0.1710 
  5 C        2.4550    -1.5130    -0.4110 C.3   1 <1>   0.2200 
  6 N       -2.5250    -1.5490     0.3630 N.3   1 <1>  -0.8100 
  7 C        3.1510    -2.2110     0.7640 C.3   1 <1>  -0.1600 
  8 C        2.5300     0.0150    -0.2900 C.3   1 <1>  -0.1600 
  9 C       -3.8160    -2.1670     0.0200 C.3   1 <1>   0.1100 
 10 C       -2.4230    -0.1490    -0.0960 C.3   1 <1>   0.1100 
 11 C        4.6080    -1.7420     0.8950 C.3   1 <1>  -0.1600 
 12 C        3.9870     0.4830    -0.1600 C.3   1 <1>  -0.1600 
 13 C       -4.9830    -1.3430     0.6030 C.3   1 <1>   0.3430 
 14 C       -3.5680     0.6960     0.4930 C.3   1 <1>   0.3430 
 15 C        4.6880    -0.2140     1.0150 C.3   1 <1>  -0.1600 
 16 N       -4.9110     0.0980     0.1830 N.4   1 <1>  -0.9060 
 17 H        0.8820    -2.4760    -1.4160 H     1 <1>   0.3700 
 18 H       -1.4420    -3.3470     0.4560 H     1 <1>   0.0800 
 19 H       -1.3730    -2.5530    -1.0880 H     1 <1>   0.0800 
 20 H        2.9780    -1.7930    -1.3110 H     1 <1>   0.0800 
 21 H        3.1290    -3.2760     0.6180 H     1 <1>   0.0800 
 22 H        2.6360    -1.9830     1.6800 H     1 <1>   0.0800 
 23 H        1.9890     0.3360     0.5830 H     1 <1>   0.0800 
 24 H        2.0840     0.4690    -1.1560 H     1 <1>   0.0800 
 25 H       -3.8550    -3.1610     0.4350 H     1 <1>   0.0800 
 26 H       -3.9170    -2.2480    -1.0490 H     1 <1>   0.0800 
 27 H       -2.4410    -0.1070    -1.1720 H     1 <1>   0.0800 
 28 H       -1.4920     0.2780     0.2380 H     1 <1>   0.0800 
 29 H        5.1680    -2.0620     0.0320 H     1 <1>   0.0800 
 30 H        5.0540    -2.1950     1.7630 H     1 <1>   0.0800 
 31 H        4.0100     1.5490    -0.0100 H     1 <1>   0.0800 
 32 H        4.5180     0.2660    -1.0710 H     1 <1>   0.0800 
 33 H       -4.9330    -1.4070     1.6780 H     1 <1>   0.0800 
 34 H       -5.9190    -1.7740     0.2880 H     1 <1>   0.0800 
 35 H       -3.5070     1.7000     0.1040 H     1 <1>   0.0800 
 36 H       -3.4290     0.7450     1.5610 H     1 <1>   0.0800 
 37 H        5.7200     0.0920     1.0530 H     1 <1>   0.0800 
 38 H        4.2220     0.0920     1.9370 H     1 <1>   0.0800 
 39 H       -5.6470     0.6370     0.6550 H     1 <1>   0.4500 
 40 H       -5.0750     0.1600    -0.8270 H     1 <1>   0.4500 
@<TRIPOS>BOND
  1   1   2  2   
  2   2   3  am  
  3   2   4  1   
  4   3   5  1   
  5   3  17  1   
  6   4   6  1   
  7   4  18  1   
  8   4  19  1   
  9   5   7  1   
 10   5   8  1   
 11   5  20  1   
 12   6   9  1   
 13   6  10  1   
 14   7  11  1   
 15   7  21  1   
 16   7  22  1   
 17   8  12  1   
 18   8  23  1   
 19   8  24  1   
 20   9  13  1   
 21   9  25  1   
 22   9  26  1   
 23  10  14  1   
 24  10  27  1   
 25  10  28  1   
 26  11  15  1   
 27  11  29  1   
 28  11  30  1   
 29  12  15  1   
 30  12  31  1   
 31  12  32  1   
 32  13  16  1   
 33  13  33  1   
 34  13  34  1   
 35  14  16  1   
 36  14  35  1   
 37  14  36  1   
 38  15  37  1   
 39  15  38  1   
 40  16  39  1   
 41  16  40  1   
@<TRIPOS>SUBSTRUCTURE
  1 ****   2 GROUP 4 **** **** 0

# MOE 2024.06 (io_trps.svl 2023.06)
