@<TRIPOS>MOLECULE
3-(2-Ethoxy-ethyl)-8-(4-fluoro-phenyl)-1-methyl-7,8-dihydro-1H,6H-imidazo[2,1-f]
48 51 1 0 0 
SMALL
USER_CHARGES


@<TRIPOS>ATOM
  1 F       -1.7560    -0.2340    -1.0920 F     1 <1>  -0.1970 
  2 C       -2.7240     0.6320    -0.9630 C.ar  1 <1>   0.1830 
  3 C       -3.9740     0.3160    -1.4630 C.ar  1 <1>  -0.1580 
  4 C       -2.4660     1.8340    -0.3320 C.ar  1 <1>  -0.1580 
  5 C       -4.9980     1.2370    -1.3220 C.ar  1 <1>  -0.1580 
  6 C       -3.4990     2.7470    -0.1970 C.ar  1 <1>  -0.1580 
  7 C       -4.7710     2.4560    -0.6850 C.ar  1 <1>   0.3040 
  8 N       -5.8090     3.3790    -0.5310 N.pl3 1 <1>  -0.5800 
  9 C       -7.0010     3.2030     0.0430 C.cat 1 <1>   1.0690 
 10 C       -5.7790     4.7540    -1.1280 C.3   1 <1>   0.1600 
 11 N       -7.5940     2.2160     0.7050 N.pl3 1 <1>  -0.7040 
 12 N       -7.7920     4.2380    -0.0630 N.pl3 1 <1>  -0.7670 
 13 C       -7.1770     5.3430    -0.8120 C.3   1 <1>   0.3480 
 14 C       -8.8520     2.6580     1.0240 C.2   1 <1>   0.4200 
 15 C       -9.0080     3.9170     0.5480 C.2   1 <1>   0.2700 
 16 N       -9.8410     1.9850     1.7130 N.am  1 <1>  -0.4420 
 17 C      -10.2530     4.5890     0.7370 C.2   1 <1>   0.6990 
 18 C      -11.0880     2.5920     1.8120 C.2   1 <1>   0.6860 
 19 C       -9.6180     0.6130     2.2540 C.3   1 <1>   0.0520 
 20 O      -10.3870     5.7670     0.4450 O.2   1 <1>  -0.5750 
 21 N      -11.2990     3.8540     1.2710 N.am  1 <1>  -0.4260 
 22 O      -12.0050     2.0060     2.3550 O.2   1 <1>  -0.5750 
 23 C      -12.6660     4.1530     0.7560 C.3   1 <1>   0.1320 
 24 C      -12.9850     3.2430    -0.4430 C.3   1 <1>   0.1120 
 25 O      -11.8490     3.1130    -1.2590 O.3   1 <1>  -0.5650 
 26 C      -11.9240     2.0870    -2.1950 C.3   1 <1>   0.1120 
 27 C      -11.3210     0.8270    -1.5780 C.3   1 <1>  -0.2470 
 28 H       -4.1280    -0.6300    -1.9550 H     1 <1>   0.1420 
 29 H       -1.4780     2.0420     0.0410 H     1 <1>   0.1420 
 30 H       -5.9690     1.0060    -1.7210 H     1 <1>   0.1420 
 31 H       -3.3120     3.6850     0.2940 H     1 <1>   0.1420 
 32 H       -5.6170     4.7020    -2.1920 H     1 <1>   0.0720 
 33 H       -5.0040     5.3480    -0.6760 H     1 <1>   0.0720 
 34 H       -7.1760     1.3150     0.9220 H     1 <1>   0.4440 
 35 H       -7.7320     5.5540    -1.7110 H     1 <1>   0.0720 
 36 H       -7.1080     6.2310    -0.2050 H     1 <1>   0.0720 
 37 H       -9.8150    -0.1140     1.4850 H     1 <1>   0.0720 
 38 H      -10.2810     0.4250     3.0830 H     1 <1>   0.0720 
 39 H       -8.6070     0.5050     2.6040 H     1 <1>   0.0720 
 40 H      -12.7380     5.1820     0.4490 H     1 <1>   0.0720 
 41 H      -13.3930     3.9970     1.5340 H     1 <1>   0.0720 
 42 H      -13.7880     3.6550    -1.0290 H     1 <1>   0.0720 
 43 H      -13.2750     2.2700    -0.0850 H     1 <1>   0.0720 
 44 H      -11.3500     2.3890    -3.0540 H     1 <1>   0.0720 
 45 H      -12.9480     1.9370    -2.4960 H     1 <1>   0.0720 
 46 H      -10.2980     1.0020    -1.3020 H     1 <1>   0.0720 
 47 H      -11.3480     0.0290    -2.2980 H     1 <1>   0.0720 
 48 H      -11.8830     0.5180    -0.7150 H     1 <1>   0.0720 
@<TRIPOS>BOND
  1   1   2  1   
  2   2   3  ar  
  3   2   4  ar  
  4   3   5  ar  
  5   3  28  1   
  6   4   6  ar  
  7   4  29  1   
  8   5   7  ar  
  9   5  30  1   
 10   6   7  ar  
 11   6  31  1   
 12   7   8  1   
 13   8   9  ar  
 14   8  10  1   
 15   9  11  ar  
 16   9  12  ar  
 17  10  13  1   
 18  10  32  1   
 19  10  33  1   
 20  11  14  1   
 21  11  34  1   
 22  12  13  1   
 23  12  15  1   
 24  13  35  1   
 25  13  36  1   
 26  14  15  2   
 27  14  16  1   
 28  15  17  1   
 29  16  18  am  
 30  16  19  1   
 31  17  20  2   
 32  17  21  am  
 33  18  21  am  
 34  18  22  2   
 35  19  37  1   
 36  19  38  1   
 37  19  39  1   
 38  21  23  1   
 39  23  24  1   
 40  23  40  1   
 41  23  41  1   
 42  24  25  1   
 43  24  42  1   
 44  24  43  1   
 45  25  26  1   
 46  26  27  1   
 47  26  44  1   
 48  26  45  1   
 49  27  46  1   
 50  27  47  1   
 51  27  48  1   
@<TRIPOS>SUBSTRUCTURE
  1 ****  11 GROUP 4 **** **** 0

# MOE 2024.06 (io_trps.svl 2023.06)
