@<TRIPOS>MOLECULE
8-(3-Chloro-phenyl)-3-(2-ethoxy-ethyl)-1,6-dimethyl-5,6,7,8-tetrahydro-1H-1,3,4b
54 57 1 0 0 
SMALL
USER_CHARGES


@<TRIPOS>ATOM
  1 CL      -4.0100    -2.7250    -2.9360 Cl    1 <1>  -0.1840 
  2 C       -3.8720    -1.7300    -1.5130 C.ar  1 <1>   0.1700 
  3 C       -4.6370    -0.5860    -1.4220 C.ar  1 <1>  -0.1570 
  4 C       -3.0080    -2.1040    -0.5010 C.ar  1 <1>  -0.1570 
  5 C       -4.5500     0.2050    -0.2850 C.ar  1 <1>   0.3050 
  6 C       -2.9100    -1.3110     0.6300 C.ar  1 <1>  -0.1570 
  7 N       -5.3470     1.3460    -0.1570 N.pl3 1 <1>  -0.5790 
  8 C       -3.6780    -0.1630     0.7340 C.ar  1 <1>  -0.1570 
  9 C       -6.6780     1.2930     0.0450 C.cat 1 <1>   1.0690 
 10 C       -4.6900     2.6690    -0.3670 C.3   1 <1>   0.1610 
 11 N       -7.4190     0.1970     0.1970 N.pl3 1 <1>  -0.7030 
 12 N       -7.4470     2.3710     0.1190 N.pl3 1 <1>  -0.7670 
 13 C       -5.4590     3.7990     0.3480 C.3   1 <1>  -0.0870 
 14 C       -8.7140     0.5890     0.3650 C.2   1 <1>   0.4210 
 15 C       -8.7650     1.9380     0.3220 C.2   1 <1>   0.2710 
 16 C       -6.9600     3.7630     0.0100 C.3   1 <1>   0.3490 
 17 C       -4.8520     5.1660    -0.0020 C.3   1 <1>  -0.2460 
 18 N       -9.8250    -0.2100     0.5470 N.am  1 <1>  -0.4410 
 19 C      -10.0280     2.5910     0.4770 C.2   1 <1>   0.7000 
 20 C      -11.0550     0.4120     0.7220 C.2   1 <1>   0.6870 
 21 C       -9.7080    -1.6990     0.5720 C.3   1 <1>   0.0530 
 22 O      -10.1160     3.8040     0.4000 O.2   1 <1>  -0.5740 
 23 N      -11.1450     1.8000     0.7070 N.am  1 <1>  -0.4250 
 24 O      -12.0520    -0.2600     0.8810 O.2   1 <1>  -0.5740 
 25 C      -12.4720     2.4500     0.9550 C.3   1 <1>   0.1330 
 26 C      -13.2820     2.5390    -0.3380 C.3   1 <1>   0.1130 
 27 O      -14.4650     3.2080    -0.0560 O.3   1 <1>  -0.5640 
 28 C      -15.3200     3.3250    -1.1420 C.3   1 <1>   0.1130 
 29 C      -16.5580     4.0780    -0.6740 C.3   1 <1>  -0.2460 
 30 H       -5.2860    -0.3210    -2.2360 H     1 <1>   0.1430 
 31 H       -2.4210    -3.0020    -0.6000 H     1 <1>   0.1430 
 32 H       -2.2340    -1.5900     1.4230 H     1 <1>   0.1430 
 33 H       -3.5970     0.4480     1.6160 H     1 <1>   0.1430 
 34 H       -4.6460     2.8690    -1.4250 H     1 <1>   0.0730 
 35 H       -3.6790     2.6360     0.0060 H     1 <1>   0.0730 
 36 H       -7.0560    -0.7520     0.1960 H     1 <1>   0.4450 
 37 H       -5.3500     3.6620     1.4100 H     1 <1>   0.0730 
 38 H       -7.5050     4.4000     0.6890 H     1 <1>   0.0730 
 39 H       -7.1270     4.1160    -0.9940 H     1 <1>   0.0730 
 40 H       -4.9250     5.3650    -1.0580 H     1 <1>   0.0730 
 41 H       -3.8130     5.1990     0.2790 H     1 <1>   0.0730 
 42 H       -5.3630     5.9520     0.5290 H     1 <1>   0.0730 
 43 H       -9.0120    -2.0340    -0.1770 H     1 <1>   0.0730 
 44 H      -10.6600    -2.1600     0.3690 H     1 <1>   0.0730 
 45 H       -9.3740    -2.0200     1.5430 H     1 <1>   0.0730 
 46 H      -12.3330     3.4400     1.3520 H     1 <1>   0.0730 
 47 H      -13.0270     1.8770     1.6790 H     1 <1>   0.0730 
 48 H      -13.5230     1.5540    -0.7000 H     1 <1>   0.0730 
 49 H      -12.7460     3.1000    -1.0840 H     1 <1>   0.0730 
 50 H      -15.5830     2.3390    -1.4860 H     1 <1>   0.0730 
 51 H      -14.8180     3.8700    -1.9240 H     1 <1>   0.0730 
 52 H      -17.0440     3.5330     0.1150 H     1 <1>   0.0730 
 53 H      -17.2470     4.1890    -1.4910 H     1 <1>   0.0730 
 54 H      -16.2830     5.0550    -0.3190 H     1 <1>   0.0730 
@<TRIPOS>BOND
  1   1   2  1   
  2   2   3  ar  
  3   2   4  ar  
  4   3   5  ar  
  5   3  30  1   
  6   4   6  ar  
  7   4  31  1   
  8   5   7  1   
  9   5   8  ar  
 10   6   8  ar  
 11   6  32  1   
 12   7   9  ar  
 13   7  10  1   
 14   8  33  1   
 15   9  11  ar  
 16   9  12  ar  
 17  10  13  1   
 18  10  34  1   
 19  10  35  1   
 20  11  14  1   
 21  11  36  1   
 22  12  15  1   
 23  12  16  1   
 24  13  16  1   
 25  13  17  1   
 26  13  37  1   
 27  14  15  2   
 28  14  18  1   
 29  15  19  1   
 30  16  38  1   
 31  16  39  1   
 32  17  40  1   
 33  17  41  1   
 34  17  42  1   
 35  18  20  am  
 36  18  21  1   
 37  19  22  2   
 38  19  23  am  
 39  20  23  am  
 40  20  24  2   
 41  21  43  1   
 42  21  44  1   
 43  21  45  1   
 44  23  25  1   
 45  25  26  1   
 46  25  46  1   
 47  25  47  1   
 48  26  27  1   
 49  26  48  1   
 50  26  49  1   
 51  27  28  1   
 52  28  29  1   
 53  28  50  1   
 54  28  51  1   
 55  29  52  1   
 56  29  53  1   
 57  29  54  1   
@<TRIPOS>SUBSTRUCTURE
  1 ****  14 GROUP 4 **** **** 0

# MOE 2024.06 (io_trps.svl 2023.06)
