@<TRIPOS>MOLECULE
N-(2,5-Dichloro-phenyl)-2-[4-(piperidine-1-sulfonyl)-piperazin-1-yl]-acetamide
51 53 1 0 0 
SMALL
USER_CHARGES


@<TRIPOS>ATOM
  1 CL      -0.1110     0.3350     0.9680 Cl    1 <1>  -0.1770 
  2 C       -1.8380     0.3510     0.6690 C.ar  1 <1>   0.1770 
  3 C       -2.4690     1.5610     0.3770 C.ar  1 <1>   0.1170 
  4 C       -2.5270    -0.8480     0.7270 C.ar  1 <1>  -0.1500 
  5 N       -1.7150     2.7460     0.3390 N.am  1 <1>  -0.5470 
  6 C       -3.8410     1.5360     0.1400 C.ar  1 <1>  -0.1500 
  7 C       -3.8920    -0.8550     0.4880 C.ar  1 <1>  -0.1500 
  8 C       -1.9240     3.9670    -0.2330 C.2   1 <1>   0.5690 
  9 C       -4.5290     0.3380     0.1970 C.ar  1 <1>   0.1770 
 10 O       -2.9340     4.2740    -0.8190 O.2   1 <1>  -0.5700 
 11 C       -0.7780     4.9750    -0.1110 C.3   1 <1>   0.1710 
 12 CL      -6.2480     0.3260    -0.1010 Cl    1 <1>  -0.1770 
 13 N        0.5330     4.3460     0.2400 N.3   1 <1>  -0.8100 
 14 C        1.1390     3.6800    -0.9380 C.3   1 <1>   0.1100 
 15 C        1.4740     5.3550     0.7710 C.3   1 <1>   0.1100 
 16 C        2.4840     3.0210    -0.5700 C.3   1 <1>   0.1960 
 17 C        2.8620     4.7500     1.0880 C.3   1 <1>   0.1960 
 18 N        3.4540     3.9790    -0.0210 N.am  1 <1>  -0.8490 
 19 S        4.2010     4.9250    -1.2040 S.o2  1 <1>   1.5760 
 20 O        4.7100     4.0520    -2.2390 O.2   1 <1>  -0.6500 
 21 O        3.3410     6.0330    -1.5530 O.2   1 <1>  -0.6500 
 22 N        5.5160     5.5130    -0.3260 N.am  1 <1>  -0.8490 
 23 C        6.4670     4.4440    -0.0010 C.3   1 <1>   0.1960 
 24 C        6.1790     6.5980    -1.0510 C.3   1 <1>   0.1960 
 25 C        7.5760     4.9820     0.9080 C.3   1 <1>  -0.1600 
 26 C        7.2840     7.2170    -0.1880 C.3   1 <1>  -0.1600 
 27 C        8.3050     6.1640     0.2570 C.3   1 <1>  -0.1600 
 28 H       -2.0030    -1.7590     0.9550 H     1 <1>   0.1500 
 29 H       -0.7620     2.6830     0.7210 H     1 <1>   0.3700 
 30 H       -4.3790     2.4380    -0.0860 H     1 <1>   0.1500 
 31 H       -4.4580    -1.7700     0.5250 H     1 <1>   0.1500 
 32 H       -1.0570     5.6700     0.6610 H     1 <1>   0.0800 
 33 H       -0.6920     5.5230    -1.0320 H     1 <1>   0.0800 
 34 H        1.2930     4.3930    -1.7310 H     1 <1>   0.0800 
 35 H        0.4760     2.9180    -1.3080 H     1 <1>   0.0800 
 36 H        1.0710     5.7680     1.6790 H     1 <1>   0.0800 
 37 H        1.5790     6.1650     0.0710 H     1 <1>   0.0800 
 38 H        2.8980     2.5320    -1.4350 H     1 <1>   0.0800 
 39 H        2.2960     2.2590     0.1670 H     1 <1>   0.0800 
 40 H        2.7490     4.0930     1.9330 H     1 <1>   0.0800 
 41 H        3.5350     5.5360     1.3870 H     1 <1>   0.0800 
 42 H        6.8960     4.0440    -0.9060 H     1 <1>   0.0800 
 43 H        5.9570     3.6440     0.5080 H     1 <1>   0.0800 
 44 H        5.4600     7.3640    -1.2940 H     1 <1>   0.0800 
 45 H        6.5950     6.2220    -1.9720 H     1 <1>   0.0800 
 46 H        8.2780     4.1950     1.1170 H     1 <1>   0.0800 
 47 H        7.1390     5.2910     1.8410 H     1 <1>   0.0800 
 48 H        6.8310     7.6730     0.6750 H     1 <1>   0.0800 
 49 H        7.7810     7.9910    -0.7460 H     1 <1>   0.0800 
 50 H        8.8560     5.8160    -0.6000 H     1 <1>   0.0800 
 51 H        9.0030     6.5960     0.9530 H     1 <1>   0.0800 
@<TRIPOS>BOND
  1   1   2  1   
  2   2   3  ar  
  3   2   4  ar  
  4   3   5  1   
  5   3   6  ar  
  6   4   7  ar  
  7   4  28  1   
  8   5   8  am  
  9   5  29  1   
 10   6   9  ar  
 11   6  30  1   
 12   7   9  ar  
 13   7  31  1   
 14   8  10  2   
 15   8  11  1   
 16   9  12  1   
 17  11  13  1   
 18  11  32  1   
 19  11  33  1   
 20  13  14  1   
 21  13  15  1   
 22  14  16  1   
 23  14  34  1   
 24  14  35  1   
 25  15  17  1   
 26  15  36  1   
 27  15  37  1   
 28  16  18  1   
 29  16  38  1   
 30  16  39  1   
 31  17  18  1   
 32  17  40  1   
 33  17  41  1   
 34  18  19  am  
 35  19  20  2   
 36  19  21  2   
 37  19  22  am  
 38  22  23  1   
 39  22  24  1   
 40  23  25  1   
 41  23  42  1   
 42  23  43  1   
 43  24  26  1   
 44  24  44  1   
 45  24  45  1   
 46  25  27  1   
 47  25  46  1   
 48  25  47  1   
 49  26  27  1   
 50  26  48  1   
 51  26  49  1   
 52  27  50  1   
 53  27  51  1   
@<TRIPOS>SUBSTRUCTURE
  1 ****  14 GROUP 4 **** **** 0

# MOE 2024.06 (io_trps.svl 2023.06)
