@<TRIPOS>MOLECULE
8-(3,4-Dihydro-1H-isoquinolin-2-ylmethyl)-7-(2-fluoro-benzyl)-1,3-dimethyl-3,7-d
57 61 1 0 0 
SMALL
USER_CHARGES


@<TRIPOS>ATOM
  1 F        0.0430    -1.3170     1.1610 F     1 <1>  -0.1900 
  2 C       -0.4970    -1.3410    -0.0280 C.ar  1 <1>   0.1900 
  3 C       -1.6940    -2.0150    -0.2130 C.ar  1 <1>  -0.1440 
  4 C        0.1700    -0.7080    -1.0590 C.ar  1 <1>  -0.1500 
  5 C       -2.2340    -2.0410    -1.4920 C.ar  1 <1>  -0.1500 
  6 C       -2.3970    -2.7060     0.9430 C.3   1 <1>   0.4980 
  7 C       -0.3800    -0.7490    -2.3280 C.ar  1 <1>  -0.1500 
  8 C       -1.5780    -1.4140    -2.5410 C.ar  1 <1>  -0.1500 
  9 N       -2.3030    -4.1940     0.8180 N.pl3 1 <1>  -0.7640 
 10 C       -3.2840    -5.0570     1.3300 C.2   1 <1>   0.2770 
 11 C       -1.3630    -4.9650     0.2690 C.cat 1 <1>   0.6560 
 12 C       -4.5140    -4.8850     2.0500 C.2   1 <1>   0.7030 
 13 C       -2.8840    -6.3180     1.0430 C.2   1 <1>   0.4260 
 14 N       -1.7030    -6.2420     0.3910 N.pl3 1 <1>  -0.7000 
 15 C       -0.0350    -4.5890    -0.4200 C.3   1 <1>   0.2540 
 16 O       -4.9090    -3.7730     2.3550 O.2   1 <1>  -0.5700 
 17 N       -5.2390    -6.0170     2.3990 N.am  1 <1>  -0.4200 
 18 N       -3.5890    -7.4530     1.3930 N.am  1 <1>  -0.4360 
 19 N        0.8080    -5.7950    -0.6310 N.3   1 <1>  -0.8100 
 20 C       -4.7700    -7.2930     2.1020 C.2   1 <1>   0.6900 
 21 C       -6.5270    -5.8790     3.1490 C.3   1 <1>   0.0600 
 22 C       -3.0700    -8.8100     1.0490 C.3   1 <1>   0.0600 
 23 C        1.6080    -6.1340     0.5660 C.3   1 <1>   0.2530 
 24 C        1.7030    -5.6860    -1.7940 C.3   1 <1>   0.1100 
 25 O       -5.3930    -8.2680     2.4700 O.2   1 <1>  -0.5700 
 26 C        2.3630    -7.4380     0.3520 C.ar  1 <1>  -0.1430 
 27 C        2.2460    -7.0760    -2.1520 C.3   1 <1>  -0.0170 
 28 C        2.6770    -7.8760    -0.9280 C.ar  1 <1>  -0.1430 
 29 C        2.7530    -8.1910     1.4500 C.ar  1 <1>  -0.1500 
 30 C        3.3740    -9.0620    -1.0980 C.ar  1 <1>  -0.1500 
 31 C        3.4480    -9.3740     1.2750 C.ar  1 <1>  -0.1500 
 32 C        3.7600    -9.8100     0.0000 C.ar  1 <1>  -0.1500 
 33 H        1.0960    -0.1930    -0.8720 H     1 <1>   0.1500 
 34 H       -3.1680    -2.5440    -1.6860 H     1 <1>   0.1500 
 35 H       -3.4310    -2.4050     0.9260 H     1 <1>   0.0800 
 36 H       -1.9900    -2.3990     1.8920 H     1 <1>   0.0800 
 37 H        0.1190    -0.2600    -3.1490 H     1 <1>   0.1500 
 38 H       -2.0040    -1.4350    -3.5310 H     1 <1>   0.1500 
 39 H       -1.0890    -6.9840     0.0300 H     1 <1>   0.4500 
 40 H        0.4990    -3.8640     0.1660 H     1 <1>   0.0800 
 41 H       -0.2750    -4.1480    -1.3720 H     1 <1>   0.0800 
 42 H       -6.9590    -4.9040     3.0030 H     1 <1>   0.0800 
 43 H       -6.3510    -6.0320     4.2000 H     1 <1>   0.0800 
 44 H       -7.2360    -6.6150     2.8070 H     1 <1>   0.0800 
 45 H       -2.2950    -9.0900     1.7420 H     1 <1>   0.0800 
 46 H       -2.6730    -8.8160     0.0490 H     1 <1>   0.0800 
 47 H       -3.8570    -9.5450     1.1000 H     1 <1>   0.0800 
 48 H        0.9640    -6.2390     1.4220 H     1 <1>   0.0800 
 49 H        2.3190    -5.3500     0.7710 H     1 <1>   0.0800 
 50 H        2.5230    -5.0230    -1.5680 H     1 <1>   0.0800 
 51 H        1.1720    -5.2930    -2.6450 H     1 <1>   0.0800 
 52 H        3.0760    -6.9670    -2.8260 H     1 <1>   0.0800 
 53 H        1.4770    -7.6250    -2.6650 H     1 <1>   0.0800 
 54 H        2.5230    -7.8620     2.4480 H     1 <1>   0.1500 
 55 H        3.6180    -9.4090    -2.0860 H     1 <1>   0.1500 
 56 H        3.7500    -9.9540     2.1300 H     1 <1>   0.1500 
 57 H        4.3010   -10.7290    -0.1380 H     1 <1>   0.1500 
@<TRIPOS>BOND
  1   1   2  1   
  2   2   3  ar  
  3   2   4  ar  
  4   3   5  ar  
  5   3   6  1   
  6   4   7  ar  
  7   4  33  1   
  8   5   8  ar  
  9   5  34  1   
 10   6   9  1   
 11   6  35  1   
 12   6  36  1   
 13   7   8  ar  
 14   7  37  1   
 15   8  38  1   
 16   9  10  1   
 17   9  11  ar  
 18  10  12  1   
 19  10  13  2   
 20  11  14  ar  
 21  11  15  1   
 22  12  16  2   
 23  12  17  am  
 24  13  14  1   
 25  13  18  1   
 26  14  39  1   
 27  15  19  1   
 28  15  40  1   
 29  15  41  1   
 30  17  20  am  
 31  17  21  1   
 32  18  20  am  
 33  18  22  1   
 34  19  23  1   
 35  19  24  1   
 36  20  25  2   
 37  21  42  1   
 38  21  43  1   
 39  21  44  1   
 40  22  45  1   
 41  22  46  1   
 42  22  47  1   
 43  23  26  1   
 44  23  48  1   
 45  23  49  1   
 46  24  27  1   
 47  24  50  1   
 48  24  51  1   
 49  26  28  ar  
 50  26  29  ar  
 51  27  28  1   
 52  27  52  1   
 53  27  53  1   
 54  28  30  ar  
 55  29  31  ar  
 56  29  54  1   
 57  30  32  ar  
 58  30  55  1   
 59  31  32  ar  
 60  31  56  1   
 61  32  57  1   
@<TRIPOS>SUBSTRUCTURE
  1 ****  11 GROUP 4 **** **** 0

# MOE 2024.06 (io_trps.svl 2023.06)
