@<TRIPOS>MOLECULE
1-(4-Ethoxy-3-methyl-benzenesulfonyl)-piperidine-4-carboxylic acid (2-morpholin-
64 66 1 0 0 
SMALL
USER_CHARGES


@<TRIPOS>ATOM
  1 S        0.8280    -0.3790    -2.2500 S.o2  1 <1>   1.4470 
  2 O        1.4520    -1.4700    -2.9680 O.2   1 <1>  -0.6500 
  3 O        0.1910     0.6860    -2.9960 O.2   1 <1>  -0.6500 
  4 N        2.0460     0.3590    -1.3260 N.am  1 <1>  -0.8490 
  5 C       -0.3020    -1.0490    -0.9980 C.ar  1 <1>  -0.0090 
  6 C        1.5510     1.5430    -0.6170 C.3   1 <1>   0.1960 
  7 C        3.2110     0.6760    -2.1520 C.3   1 <1>   0.1960 
  8 C       -1.6360    -0.6620    -0.9470 C.ar  1 <1>  -0.1500 
  9 C        0.1460    -1.9590    -0.0500 C.ar  1 <1>  -0.1500 
 10 C        2.6340     2.0850     0.3180 C.3   1 <1>  -0.1600 
 11 C        4.3560     1.1950    -1.2760 C.3   1 <1>  -0.1600 
 12 C       -2.5010    -1.1560     0.0160 C.ar  1 <1>  -0.1430 
 13 C       -0.7030    -2.4650     0.9190 C.ar  1 <1>  -0.1500 
 14 C        3.9230     2.4200    -0.4530 C.3   1 <1>  -0.0190 
 15 C       -2.0350    -2.0650     0.9600 C.ar  1 <1>   0.0820 
 16 C       -3.9540    -0.7030     0.0320 C.3   1 <1>  -0.0970 
 17 C        5.0400     2.8930     0.4780 C.2   1 <1>   0.5690 
 18 O       -2.9160    -2.5220     1.8860 O.3   1 <1>  -0.3630 
 19 O        5.3160     2.2540     1.4640 O.2   1 <1>  -0.5700 
 20 N        5.7290     4.0240     0.1630 N.am  1 <1>  -0.7300 
 21 C       -2.5460    -3.4610     2.8690 C.3   1 <1>   0.1200 
 22 C        6.5790     4.8170     1.1060 C.3   1 <1>   0.1400 
 23 C       -3.7730    -3.7550     3.7270 C.3   1 <1>  -0.2400 
 24 C        7.5570     4.0090     1.9950 C.3   1 <1>   0.3430 
 25 N        8.6290     3.2830     1.2340 N.4   1 <1>  -0.9590 
 26 C        8.1390     2.0080     0.6050 C.3   1 <1>   0.3430 
 27 C        9.8300     2.9920     2.0850 C.3   1 <1>   0.3430 
 28 C        9.2930     1.1750     0.0020 C.3   1 <1>   0.1200 
 29 C       10.9380     2.2770     1.2750 C.3   1 <1>   0.1200 
 30 O       10.4890     1.9080    -0.0020 O.3   1 <1>  -0.5600 
 31 H        0.6850     1.2830    -0.0300 H     1 <1>   0.0800 
 32 H        1.2600     2.3040    -1.3250 H     1 <1>   0.0800 
 33 H        2.9430     1.4080    -2.8970 H     1 <1>   0.0800 
 34 H        3.5470    -0.2130    -2.6630 H     1 <1>   0.0800 
 35 H       -1.9990     0.0410    -1.6780 H     1 <1>   0.1500 
 36 H        1.1760    -2.2740    -0.0730 H     1 <1>   0.1500 
 37 H        2.8360     1.3430     1.0730 H     1 <1>   0.0800 
 38 H        2.2670     2.9650     0.8150 H     1 <1>   0.0800 
 39 H        5.1900     1.4500    -1.9040 H     1 <1>   0.0800 
 40 H        4.6650     0.4030    -0.6160 H     1 <1>   0.0800 
 41 H       -0.3070    -3.1660     1.6290 H     1 <1>   0.1500 
 42 H        3.6950     3.2170    -1.1380 H     1 <1>   0.0800 
 43 H       -4.1560    -0.0040    -0.7590 H     1 <1>   0.0800 
 44 H       -4.1780    -0.2320     0.9720 H     1 <1>   0.0800 
 45 H       -4.6010    -1.5540    -0.0880 H     1 <1>   0.0800 
 46 H        5.4260     4.5430    -0.6680 H     1 <1>   0.3700 
 47 H       -1.7570    -3.0370     3.4660 H     1 <1>   0.0800 
 48 H       -2.2040    -4.3540     2.3740 H     1 <1>   0.0800 
 49 H        5.9190     5.3650     1.7580 H     1 <1>   0.0800 
 50 H        7.1410     5.5430     0.5450 H     1 <1>   0.0800 
 51 H       -4.1160    -2.8540     4.2020 H     1 <1>   0.0800 
 52 H       -3.5220    -4.4710     4.4880 H     1 <1>   0.0800 
 53 H       -4.5600    -4.1630     3.1180 H     1 <1>   0.0800 
 54 H        6.9980     3.3120     2.5990 H     1 <1>   0.0800 
 55 H        8.0250     4.7060     2.6690 H     1 <1>   0.0800 
 56 H        8.9700     3.8560     0.4500 H     1 <1>   0.4500 
 57 H        7.4360     2.2380    -0.1780 H     1 <1>   0.0800 
 58 H        7.6150     1.4100     1.3340 H     1 <1>   0.0800 
 59 H        9.5440     2.3630     2.9120 H     1 <1>   0.0800 
 60 H       10.2300     3.9050     2.4950 H     1 <1>   0.0800 
 61 H        9.0660     0.9040    -1.0140 H     1 <1>   0.0800 
 62 H        9.4450     0.2710     0.5660 H     1 <1>   0.0800 
 63 H       11.2740     1.3930     1.7900 H     1 <1>   0.0800 
 64 H       11.7820     2.9300     1.1450 H     1 <1>   0.0800 
@<TRIPOS>BOND
  1   1   2  2   
  2   1   3  2   
  3   1   4  am  
  4   1   5  1   
  5   4   6  1   
  6   4   7  1   
  7   5   8  ar  
  8   5   9  ar  
  9   6  10  1   
 10   6  31  1   
 11   6  32  1   
 12   7  11  1   
 13   7  33  1   
 14   7  34  1   
 15   8  12  ar  
 16   8  35  1   
 17   9  13  ar  
 18   9  36  1   
 19  10  14  1   
 20  10  37  1   
 21  10  38  1   
 22  11  14  1   
 23  11  39  1   
 24  11  40  1   
 25  12  15  ar  
 26  12  16  1   
 27  13  15  ar  
 28  13  41  1   
 29  14  17  1   
 30  14  42  1   
 31  15  18  1   
 32  16  43  1   
 33  16  44  1   
 34  16  45  1   
 35  17  19  2   
 36  17  20  am  
 37  18  21  1   
 38  20  22  1   
 39  20  46  1   
 40  21  23  1   
 41  21  47  1   
 42  21  48  1   
 43  22  24  1   
 44  22  49  1   
 45  22  50  1   
 46  23  51  1   
 47  23  52  1   
 48  23  53  1   
 49  24  25  1   
 50  24  54  1   
 51  24  55  1   
 52  25  26  1   
 53  25  27  1   
 54  25  56  1   
 55  26  28  1   
 56  26  57  1   
 57  26  58  1   
 58  27  29  1   
 59  27  59  1   
 60  27  60  1   
 61  28  30  1   
 62  28  61  1   
 63  28  62  1   
 64  29  30  1   
 65  29  63  1   
 66  29  64  1   
@<TRIPOS>SUBSTRUCTURE
  1 ****  10 GROUP 4 **** **** 0

# MOE 2024.06 (io_trps.svl 2023.06)
