@<TRIPOS>MOLECULE
N-{3-[1-Acetyl-5-(3,4-dimethoxy-phenyl)-4,5-dihydro-1H-pyrazol-3-yl]-phenyl}-met
52 54 1 0 0 
SMALL
USER_CHARGES


@<TRIPOS>ATOM
  1 S        1.3760    -0.3870    -0.4780 S.o2  1 <1>   1.3330 
  2 O        2.4280    -0.8360    -1.3560 O.2   1 <1>  -0.6500 
  3 O        0.5360     0.7350    -0.8070 O.2   1 <1>  -0.6500 
  4 N        0.2740    -1.6820    -0.2480 N.am  1 <1>  -0.7570 
  5 C        2.0230    -0.1560     1.1630 C.3   1 <1>  -0.1350 
  6 C        0.5180    -3.0000     0.1170 C.ar  1 <1>   0.1990 
  7 C        1.6730    -3.6780    -0.2490 C.ar  1 <1>  -0.1500 
  8 C       -0.4360    -3.6710     0.8710 C.ar  1 <1>  -0.1500 
  9 C        1.9160    -5.0010     0.1240 C.ar  1 <1>   0.0860 
 10 C       -0.2290    -4.9800     1.2580 C.ar  1 <1>  -0.1500 
 11 C        3.1160    -5.7150    -0.2560 C.2   1 <1>   0.3030 
 12 C        0.9320    -5.6320     0.8910 C.ar  1 <1>  -0.1500 
 13 N        3.3910    -6.9230     0.0310 N.2   1 <1>  -0.5120 
 14 C        4.2050    -5.0550    -1.0720 C.3   1 <1>  -0.0990 
 15 N        4.6100    -7.2970    -0.4840 N.am  1 <1>  -0.2980 
 16 C        5.2440    -6.1650    -1.1960 C.3   1 <1>   0.3640 
 17 C        5.1700    -8.5660    -0.3900 C.2   1 <1>   0.5690 
 18 C        6.5780    -5.7610    -0.5690 C.ar  1 <1>  -0.1430 
 19 O        4.6520    -9.4750     0.2150 O.2   1 <1>  -0.5700 
 20 C        6.4870    -8.8800    -1.0710 C.3   1 <1>  -0.1790 
 21 C        7.6680    -5.4840    -1.3830 C.ar  1 <1>  -0.1500 
 22 C        6.7250    -5.6710     0.8100 C.ar  1 <1>  -0.1500 
 23 C        8.8890    -5.1270    -0.8370 C.ar  1 <1>   0.0830 
 24 C        7.9450    -5.3260     1.3660 C.ar  1 <1>  -0.1500 
 25 O        9.8970    -4.8490    -1.7000 O.3   1 <1>  -0.3630 
 26 C        9.0360    -5.0690     0.5540 C.ar  1 <1>   0.0830 
 27 C       10.3930    -3.5270    -1.6880 C.3   1 <1>   0.0400 
 28 O       10.2120    -4.7780     1.1590 O.3   1 <1>  -0.3630 
 29 C       11.2380    -5.7360     1.0210 C.3   1 <1>   0.0400 
 30 H       -0.6770    -1.3260    -0.2070 H     1 <1>   0.4200 
 31 H        2.7130     0.6650     1.1720 H     1 <1>   0.0800 
 32 H        2.5360    -1.0390     1.4880 H     1 <1>   0.0800 
 33 H        1.2280     0.0570     1.8500 H     1 <1>   0.0800 
 34 H        2.3950    -3.1690    -0.8540 H     1 <1>   0.1500 
 35 H       -1.3420    -3.1690     1.1570 H     1 <1>   0.1500 
 36 H       -0.9700    -5.4960     1.8460 H     1 <1>   0.1500 
 37 H        1.0830    -6.6540     1.1990 H     1 <1>   0.1500 
 38 H        4.6040    -4.1960    -0.5650 H     1 <1>   0.0800 
 39 H        3.8410    -4.7730    -2.0430 H     1 <1>   0.0800 
 40 H        5.3720    -6.4320    -2.2300 H     1 <1>   0.0800 
 41 H        7.2940    -8.4200    -0.5320 H     1 <1>   0.0800 
 42 H        6.4810    -8.5360    -2.0870 H     1 <1>   0.0800 
 43 H        6.6440    -9.9430    -1.0740 H     1 <1>   0.0800 
 44 H        7.5860    -5.5380    -2.4540 H     1 <1>   0.1500 
 45 H        5.8900    -5.8800     1.4600 H     1 <1>   0.1500 
 46 H        8.0580    -5.2640     2.4330 H     1 <1>   0.1500 
 47 H       11.0920    -3.4230    -2.4980 H     1 <1>   0.0800 
 48 H       10.8880    -3.3380    -0.7530 H     1 <1>   0.0800 
 49 H        9.5710    -2.8460    -1.8190 H     1 <1>   0.0800 
 50 H       12.0760    -5.4200     1.6150 H     1 <1>   0.0800 
 51 H       11.5250    -5.8040    -0.0130 H     1 <1>   0.0800 
 52 H       10.8740    -6.6860     1.3710 H     1 <1>   0.0800 
@<TRIPOS>BOND
  1   1   2  2   
  2   1   3  2   
  3   1   4  am  
  4   1   5  1   
  5   4   6  1   
  6   4  30  1   
  7   5  31  1   
  8   5  32  1   
  9   5  33  1   
 10   6   7  ar  
 11   6   8  ar  
 12   7   9  ar  
 13   7  34  1   
 14   8  10  ar  
 15   8  35  1   
 16   9  11  1   
 17   9  12  ar  
 18  10  12  ar  
 19  10  36  1   
 20  11  13  2   
 21  11  14  1   
 22  12  37  1   
 23  13  15  1   
 24  14  16  1   
 25  14  38  1   
 26  14  39  1   
 27  15  16  1   
 28  15  17  am  
 29  16  18  1   
 30  16  40  1   
 31  17  19  2   
 32  17  20  1   
 33  18  21  ar  
 34  18  22  ar  
 35  20  41  1   
 36  20  42  1   
 37  20  43  1   
 38  21  23  ar  
 39  21  44  1   
 40  22  24  ar  
 41  22  45  1   
 42  23  25  1   
 43  23  26  ar  
 44  24  26  ar  
 45  24  46  1   
 46  25  27  1   
 47  26  28  1   
 48  27  47  1   
 49  27  48  1   
 50  27  49  1   
 51  28  29  1   
 52  29  50  1   
 53  29  51  1   
 54  29  52  1   
@<TRIPOS>SUBSTRUCTURE
  1 ****  14 GROUP 4 **** **** 0

# MOE 2024.06 (io_trps.svl 2023.06)
