@<TRIPOS>MOLECULE
1-Ethyl-7-methyl-4-oxo-1,4-dihydro-[1,8]naphthyridine-3-carboxylic acid methyl e
32 33 1 0 0 
SMALL
USER_CHARGES


@<TRIPOS>ATOM
  1 O       -0.0420    -0.2350     0.3660 O.2   1 <1>  -0.5700 
  2 C       -0.0670    -1.4330     0.1170 C.2   1 <1>   0.4690 
  3 C        1.1270    -2.1680    -0.1260 C.2   1 <1>   0.0290 
  4 C       -1.3220    -2.1330     0.1170 C.ar  1 <1>   0.0860 
  5 C        2.3680    -1.4740    -0.2800 C.2   1 <1>   0.7060 
  6 C        1.0560    -3.5320    -0.1990 C.2   1 <1>  -0.0500 
  7 C       -1.3360    -3.5350     0.0120 C.ar  1 <1>   0.4100 
  8 C       -2.5450    -1.4740     0.2250 C.ar  1 <1>  -0.1500 
  9 O        2.5330    -0.5060    -0.9960 O.2   1 <1>  -0.5700 
 10 O        3.4270    -1.9770     0.3680 O.3   1 <1>  -0.4300 
 11 N       -0.1220    -4.2270    -0.0990 N.pl3 1 <1>  -0.5690 
 12 N       -2.4640    -4.2560     0.0060 N.ar  1 <1>  -0.6200 
 13 C       -3.6920    -2.2260     0.2190 C.ar  1 <1>  -0.1500 
 14 C        4.7040    -1.3740     0.2790 C.3   1 <1>   0.0400 
 15 C       -0.1880    -5.7290    -0.1400 C.3   1 <1>   0.2090 
 16 C       -3.6000    -3.6060     0.1070 C.ar  1 <1>   0.1670 
 17 C        1.1670    -6.4370    -0.0660 C.3   1 <1>  -0.2400 
 18 C       -4.8570    -4.4510     0.0980 C.3   1 <1>  -0.0970 
 19 H        1.9690    -4.0820    -0.3510 H     1 <1>   0.1500 
 20 H       -2.5790    -0.4010     0.3100 H     1 <1>   0.1500 
 21 H       -4.6520    -1.7490     0.3000 H     1 <1>   0.1500 
 22 H        5.3900    -1.9360     0.8860 H     1 <1>   0.0800 
 23 H        4.6350    -0.3610     0.6370 H     1 <1>   0.0800 
 24 H        5.0230    -1.3830    -0.7490 H     1 <1>   0.0800 
 25 H       -0.6940    -6.0240    -1.0450 H     1 <1>   0.0800 
 26 H       -0.7860    -6.0650     0.6910 H     1 <1>   0.0800 
 27 H        1.7540    -6.2250    -0.9410 H     1 <1>   0.0800 
 28 H        1.0080    -7.4990    -0.0250 H     1 <1>   0.0800 
 29 H        1.6970    -6.1420     0.8220 H     1 <1>   0.0800 
 30 H       -4.8300    -5.1430     0.9200 H     1 <1>   0.0800 
 31 H       -4.9070    -5.0080    -0.8200 H     1 <1>   0.0800 
 32 H       -5.7370    -3.8420     0.1840 H     1 <1>   0.0800 
@<TRIPOS>BOND
  1   1   2  2   
  2   2   3  1   
  3   2   4  1   
  4   3   5  1   
  5   3   6  2   
  6   4   7  ar  
  7   4   8  ar  
  8   5   9  2   
  9   5  10  1   
 10   6  11  1   
 11   6  19  1   
 12   7  11  1   
 13   7  12  ar  
 14   8  13  ar  
 15   8  20  1   
 16  10  14  1   
 17  11  15  1   
 18  12  16  ar  
 19  13  16  ar  
 20  13  21  1   
 21  14  22  1   
 22  14  23  1   
 23  14  24  1   
 24  15  17  1   
 25  15  25  1   
 26  15  26  1   
 27  16  18  1   
 28  17  27  1   
 29  17  28  1   
 30  17  29  1   
 31  18  30  1   
 32  18  31  1   
 33  18  32  1   
@<TRIPOS>SUBSTRUCTURE
  1 ****   4 GROUP 4 **** **** 0

# MOE 2024.06 (io_trps.svl 2023.06)
