@<TRIPOS>MOLECULE
N-o-Tolyl-2-(4-trifluoromethyl-5,6,7,8-tetrahydro-quinazolin-2-ylsulfanyl)-aceta
44 46 1 0 0 
SMALL
USER_CHARGES


@<TRIPOS>ATOM
  1 S        0.3340     0.1600     0.4120 S.3   1 <1>  -0.3320 
  2 C       -0.9620     1.3760     0.2710 C.ar  1 <1>   0.7220 
  3 C        1.6090     0.6110    -0.8700 C.3   1 <1>   0.1310 
  4 N       -0.8090     2.2740    -0.6800 N.ar  1 <1>  -0.6200 
  5 N       -1.9270     1.2640     1.1510 N.ar  1 <1>  -0.6200 
  6 C        2.5440     1.6980    -0.3600 C.2   1 <1>   0.5690 
  7 C       -1.7780     3.1810    -0.7910 C.ar  1 <1>   0.1660 
  8 C       -2.8780     2.1600     1.0530 C.ar  1 <1>   0.1660 
  9 O        3.7320     1.4900    -0.4020 O.2   1 <1>  -0.5700 
 10 N        1.9950     2.8580     0.1120 N.am  1 <1>  -0.5470 
 11 C       -2.8640     3.1510     0.0830 C.ar  1 <1>  -0.1440 
 12 C       -1.6540     4.2620    -1.9090 C.3   1 <1>   1.1640 
 13 C       -4.0000     2.0170     2.0730 C.3   1 <1>  -0.0170 
 14 C        2.5740     3.9920     0.6980 C.ar  1 <1>   0.1170 
 15 C       -4.0060     4.1760     0.0090 C.3   1 <1>  -0.0170 
 16 F       -2.5840     4.1310    -2.8490 F     1 <1>  -0.3400 
 17 F       -1.7770     5.5000    -1.4370 F     1 <1>  -0.3400 
 18 F       -0.4870     4.2370    -2.5470 F     1 <1>  -0.3400 
 19 C       -4.8920     3.2570     2.1740 C.3   1 <1>  -0.1600 
 20 C        1.8580     4.7250     1.6490 C.ar  1 <1>  -0.1440 
 21 C        3.8460     4.4240     0.3370 C.ar  1 <1>  -0.1500 
 22 C       -5.2620     3.7470     0.7750 C.3   1 <1>  -0.1600 
 23 C        2.4190     5.8640     2.2060 C.ar  1 <1>  -0.1500 
 24 C        0.4670     4.2960     2.1030 C.3   1 <1>  -0.0970 
 25 C        4.4000     5.5580     0.8990 C.ar  1 <1>  -0.1500 
 26 C        3.6840     6.2820     1.8350 C.ar  1 <1>  -0.1500 
 27 H        1.1000     0.9230    -1.7620 H     1 <1>   0.0800 
 28 H        2.1680    -0.2830    -1.0730 H     1 <1>   0.0800 
 29 H        0.9750     2.8740     0.0890 H     1 <1>   0.3700 
 30 H       -3.5780     1.8070     3.0400 H     1 <1>   0.0800 
 31 H       -4.5990     1.1690     1.7900 H     1 <1>   0.0800 
 32 H       -4.2960     4.3570    -1.0100 H     1 <1>   0.0800 
 33 H       -3.6580     5.1070     0.4230 H     1 <1>   0.0800 
 34 H       -4.3690     4.0360     2.7030 H     1 <1>   0.0800 
 35 H       -5.7820     3.0170     2.7300 H     1 <1>   0.0800 
 36 H        4.4090     3.8710    -0.3930 H     1 <1>   0.1500 
 37 H       -5.7610     2.9580     0.2370 H     1 <1>   0.0800 
 38 H       -5.9420     4.5790     0.8460 H     1 <1>   0.0800 
 39 H        1.8760     6.4350     2.9370 H     1 <1>   0.1500 
 40 H       -0.2480     4.4880     1.3250 H     1 <1>   0.0800 
 41 H        0.1670     4.8390     2.9810 H     1 <1>   0.0800 
 42 H        0.4580     3.2480     2.3460 H     1 <1>   0.0800 
 43 H        5.3860     5.8760     0.6080 H     1 <1>   0.1500 
 44 H        4.1120     7.1660     2.2740 H     1 <1>   0.1500 
@<TRIPOS>BOND
  1   1   2  1   
  2   1   3  1   
  3   2   4  ar  
  4   2   5  ar  
  5   3   6  1   
  6   3  27  1   
  7   3  28  1   
  8   4   7  ar  
  9   5   8  ar  
 10   6   9  2   
 11   6  10  am  
 12   7  11  ar  
 13   7  12  1   
 14   8  11  ar  
 15   8  13  1   
 16  10  14  1   
 17  10  29  1   
 18  11  15  1   
 19  12  16  1   
 20  12  17  1   
 21  12  18  1   
 22  13  19  1   
 23  13  30  1   
 24  13  31  1   
 25  14  20  ar  
 26  14  21  ar  
 27  15  22  1   
 28  15  32  1   
 29  15  33  1   
 30  19  22  1   
 31  19  34  1   
 32  19  35  1   
 33  20  23  ar  
 34  20  24  1   
 35  21  25  ar  
 36  21  36  1   
 37  22  37  1   
 38  22  38  1   
 39  23  26  ar  
 40  23  39  1   
 41  24  40  1   
 42  24  41  1   
 43  24  42  1   
 44  25  26  ar  
 45  25  43  1   
 46  26  44  1   
@<TRIPOS>SUBSTRUCTURE
  1 ****   4 GROUP 4 **** **** 0

# MOE 2024.06 (io_trps.svl 2023.06)
