@<TRIPOS>MOLECULE
2-(4-Amino-6-oxo-5-phenyl-1,6-dihydro-pyrimidin-2-ylsulfanyl)-N-cycloheptyl-acet
50 52 1 0 0 
SMALL
USER_CHARGES


@<TRIPOS>ATOM
  1 S        0.1130     0.1310    -0.5580 S.3   1 <1>  -0.3710 
  2 C       -1.3990     1.0340    -0.3620 C.2   1 <1>   0.6410 
  3 C        1.2730     0.9730     0.6390 C.3   1 <1>   0.1310 
  4 N       -2.4190     0.5990    -1.1380 N.pl3 1 <1>  -0.5500 
  5 N       -1.4520     2.0020     0.4620 N.2   1 <1>  -0.6610 
  6 C        2.6630     0.3520     0.6370 C.2   1 <1>   0.5690 
  7 C       -3.6260     1.1950    -1.0860 C.2   1 <1>   0.2000 
  8 C       -2.6570     2.6490     0.5510 C.2   1 <1>   0.7670 
  9 O        3.4750     0.7840     1.4190 O.2   1 <1>  -0.5700 
 10 N        2.9450    -0.6570    -0.2350 N.am  1 <1>  -0.7300 
 11 N       -4.5880     0.6630    -1.8780 N.pl3 1 <1>  -0.9000 
 12 C       -3.7840     2.2700    -0.2360 C.2   1 <1>  -0.0140 
 13 O       -2.7070     3.5750     1.3530 O.2   1 <1>  -0.5700 
 14 C        4.2170    -1.3920    -0.4090 C.3   1 <1>   0.2200 
 15 C       -5.0330     2.9840    -0.1410 C.ar  1 <1>   0.0280 
 16 C        4.4850    -2.2430     0.8400 C.3   1 <1>  -0.1600 
 17 C        5.3390    -0.4150    -0.7930 C.3   1 <1>  -0.1600 
 18 C       -5.7270     3.0810     1.0660 C.ar  1 <1>  -0.1500 
 19 C       -5.5980     3.5950    -1.2610 C.ar  1 <1>  -0.1500 
 20 C        5.7760    -3.0770     0.7870 C.3   1 <1>  -0.1600 
 21 C        6.5550    -1.1290    -1.4040 C.3   1 <1>  -0.1600 
 22 C       -6.9350     3.7470     1.1480 C.ar  1 <1>  -0.1500 
 23 C       -6.8060     4.2620    -1.1850 C.ar  1 <1>  -0.1500 
 24 C        7.0360    -2.2120     0.9320 C.3   1 <1>  -0.1600 
 25 C        7.5860    -1.6390    -0.3840 C.3   1 <1>  -0.1600 
 26 C       -7.4800     4.3380     0.0220 C.ar  1 <1>  -0.1500 
 27 H        0.8360     0.8930     1.6180 H     1 <1>   0.0800 
 28 H        1.3310     2.0070     0.3560 H     1 <1>   0.0800 
 29 H       -2.2460    -0.1910    -1.7530 H     1 <1>   0.4000 
 30 H        2.1860    -0.9660    -0.8450 H     1 <1>   0.3700 
 31 H       -5.5500     1.0240    -1.8550 H     1 <1>   0.4000 
 32 H       -4.4690    -0.1560    -2.4790 H     1 <1>   0.4000 
 33 H        4.0760    -2.0670    -1.2370 H     1 <1>   0.0800 
 34 H        3.6570    -2.9170     0.9650 H     1 <1>   0.0800 
 35 H        4.5180    -1.6070     1.7070 H     1 <1>   0.0800 
 36 H        5.6380     0.1740     0.0570 H     1 <1>   0.0800 
 37 H        4.9500     0.2580    -1.5360 H     1 <1>   0.0800 
 38 H       -5.3100     2.6320     1.9500 H     1 <1>   0.1500 
 39 H       -5.0780     3.5480    -2.2020 H     1 <1>   0.1500 
 40 H        5.8180    -3.6670    -0.1120 H     1 <1>   0.0800 
 41 H        5.7510    -3.7620     1.6180 H     1 <1>   0.0800 
 42 H        7.0600    -0.4430    -2.0620 H     1 <1>   0.0800 
 43 H        6.2200    -1.9500    -2.0130 H     1 <1>   0.0800 
 44 H       -7.4520     3.8100     2.0900 H     1 <1>   0.1500 
 45 H       -7.2230     4.7270    -2.0610 H     1 <1>   0.1500 
 46 H        7.8120    -2.8080     1.3790 H     1 <1>   0.0800 
 47 H        6.8370    -1.4040     1.6160 H     1 <1>   0.0800 
 48 H        8.2500    -0.8290    -0.1340 H     1 <1>   0.0800 
 49 H        8.1830    -2.3940    -0.8660 H     1 <1>   0.0800 
 50 H       -8.4200     4.8580     0.0850 H     1 <1>   0.1500 
@<TRIPOS>BOND
  1   1   2  1   
  2   1   3  1   
  3   2   4  1   
  4   2   5  2   
  5   3   6  1   
  6   3  27  1   
  7   3  28  1   
  8   4   7  1   
  9   4  29  1   
 10   5   8  1   
 11   6   9  2   
 12   6  10  am  
 13   7  11  1   
 14   7  12  2   
 15   8  12  1   
 16   8  13  2   
 17  10  14  1   
 18  10  30  1   
 19  11  31  1   
 20  11  32  1   
 21  12  15  1   
 22  14  16  1   
 23  14  17  1   
 24  14  33  1   
 25  15  18  ar  
 26  15  19  ar  
 27  16  20  1   
 28  16  34  1   
 29  16  35  1   
 30  17  21  1   
 31  17  36  1   
 32  17  37  1   
 33  18  22  ar  
 34  18  38  1   
 35  19  23  ar  
 36  19  39  1   
 37  20  24  1   
 38  20  40  1   
 39  20  41  1   
 40  21  25  1   
 41  21  42  1   
 42  21  43  1   
 43  22  26  ar  
 44  22  44  1   
 45  23  26  ar  
 46  23  45  1   
 47  24  25  1   
 48  24  46  1   
 49  24  47  1   
 50  25  48  1   
 51  25  49  1   
 52  26  50  1   
@<TRIPOS>SUBSTRUCTURE
  1 ****   1 GROUP 4 **** **** 0

# MOE 2024.06 (io_trps.svl 2023.06)
