@<TRIPOS>MOLECULE
1-(4-Ethoxy-3-methyl-benzenesulfonyl)-piperidine-4-carboxylic acid methylamide
47 48 1 0 0 
SMALL
USER_CHARGES


@<TRIPOS>ATOM
  1 S       -0.0220     0.0720     2.3620 S.o2  1 <1>   1.4470 
  2 O        0.8360    -0.9050     3.0000 O.2   1 <1>  -0.6500 
  3 O       -0.6380     1.1000     3.1730 O.2   1 <1>  -0.6500 
  4 N        0.9260     0.8510     1.1910 N.am  1 <1>  -0.8490 
  5 C       -1.3000    -0.7640     1.3820 C.ar  1 <1>  -0.0090 
  6 C        1.7100    -0.1000     0.3970 C.3   1 <1>   0.1960 
  7 C        1.7750     1.8840     1.7890 C.3   1 <1>   0.1960 
  8 C       -1.9250    -0.1190     0.3210 C.ar  1 <1>  -0.1500 
  9 C       -1.6910    -2.0660     1.6700 C.ar  1 <1>  -0.1500 
 10 C        2.4160     0.6270    -0.7490 C.3   1 <1>  -0.1600 
 11 C        2.4970     2.6760     0.6950 C.3   1 <1>  -0.1600 
 12 C       -2.8990    -0.7440    -0.4410 C.ar  1 <1>  -0.1430 
 13 C       -2.6630    -2.7060     0.9220 C.ar  1 <1>  -0.1500 
 14 C        3.3190     1.7540    -0.2210 C.3   1 <1>  -0.0190 
 15 C       -3.2740    -2.0490    -0.1420 C.ar  1 <1>   0.0830 
 16 C       -3.5480     0.0040    -1.5960 C.3   1 <1>  -0.0970 
 17 C        3.9750     2.5340    -1.3590 C.2   1 <1>   0.5690 
 18 O       -4.2320    -2.6240    -0.9150 O.3   1 <1>  -0.3630 
 19 O        3.2820     3.0550    -2.1990 O.2   1 <1>  -0.5700 
 20 N        5.3320     2.6220    -1.3910 N.am  1 <1>  -0.7300 
 21 C       -4.7030    -3.9290    -0.6720 C.3   1 <1>   0.1200 
 22 C        6.1150     3.3430    -2.4280 C.3   1 <1>   0.0600 
 23 C       -5.7770    -4.2430    -1.7080 C.3   1 <1>  -0.2400 
 24 H        1.0600    -0.8520    -0.0170 H     1 <1>   0.0800 
 25 H        2.4370    -0.5920     1.0230 H     1 <1>   0.0800 
 26 H        2.4880     1.4300     2.4580 H     1 <1>   0.0800 
 27 H        1.1680     2.5690     2.3600 H     1 <1>   0.0800 
 28 H       -1.6350     0.8930     0.0940 H     1 <1>   0.1500 
 29 H       -1.2260    -2.5860     2.4910 H     1 <1>   0.1500 
 30 H        1.6710     1.0340    -1.4120 H     1 <1>   0.0800 
 31 H        3.0040    -0.0760    -1.3110 H     1 <1>   0.0800 
 32 H        3.1420     3.4070     1.1490 H     1 <1>   0.0800 
 33 H        1.7630     3.2060     0.1120 H     1 <1>   0.0800 
 34 H       -2.9290    -3.7130     1.1830 H     1 <1>   0.1500 
 35 H        4.0970     1.3050     0.3710 H     1 <1>   0.0800 
 36 H       -3.1280     0.9870    -1.7110 H     1 <1>   0.0800 
 37 H       -4.6040     0.1000    -1.4180 H     1 <1>   0.0800 
 38 H       -3.4020    -0.5410    -2.5110 H     1 <1>   0.0800 
 39 H        5.8820     2.1710    -0.6580 H     1 <1>   0.3700 
 40 H       -5.1120    -3.9630     0.3230 H     1 <1>   0.0800 
 41 H       -3.8760    -4.6110    -0.7620 H     1 <1>   0.0800 
 42 H        5.4560     3.7860    -3.1560 H     1 <1>   0.0800 
 43 H        6.7730     2.6560    -2.9310 H     1 <1>   0.0800 
 44 H        6.6980     4.1220    -1.9690 H     1 <1>   0.0800 
 45 H       -6.5910    -3.5450    -1.6210 H     1 <1>   0.0800 
 46 H       -6.1580    -5.2360    -1.5490 H     1 <1>   0.0800 
 47 H       -5.3620    -4.1890    -2.6990 H     1 <1>   0.0800 
@<TRIPOS>BOND
  1   1   2  2   
  2   1   3  2   
  3   1   4  am  
  4   1   5  1   
  5   4   6  1   
  6   4   7  1   
  7   5   8  ar  
  8   5   9  ar  
  9   6  10  1   
 10   6  24  1   
 11   6  25  1   
 12   7  11  1   
 13   7  26  1   
 14   7  27  1   
 15   8  12  ar  
 16   8  28  1   
 17   9  13  ar  
 18   9  29  1   
 19  10  14  1   
 20  10  30  1   
 21  10  31  1   
 22  11  14  1   
 23  11  32  1   
 24  11  33  1   
 25  12  15  ar  
 26  12  16  1   
 27  13  15  ar  
 28  13  34  1   
 29  14  17  1   
 30  14  35  1   
 31  15  18  1   
 32  16  36  1   
 33  16  37  1   
 34  16  38  1   
 35  17  19  2   
 36  17  20  am  
 37  18  21  1   
 38  20  22  1   
 39  20  39  1   
 40  21  23  1   
 41  21  40  1   
 42  21  41  1   
 43  22  42  1   
 44  22  43  1   
 45  22  44  1   
 46  23  45  1   
 47  23  46  1   
 48  23  47  1   
@<TRIPOS>SUBSTRUCTURE
  1 ****   4 GROUP 4 **** **** 0

# MOE 2024.06 (io_trps.svl 2023.06)
