@<TRIPOS>MOLECULE
(3-Bromo-phenyl)-[4-(morpholine-4-sulfonyl)-piperazin-1-yl]-methanone
44 46 1 0 0 
SMALL
USER_CHARGES


@<TRIPOS>ATOM
  1 BR       1.5220     0.0390     1.4770 Br    1 <1>  -0.1110 
  2 C        1.3920     1.7220     0.5560 C.ar  1 <1>   0.1110 
  3 C        0.4970     2.6650     1.0210 C.ar  1 <1>  -0.1500 
  4 C        2.1970     1.9410    -0.5450 C.ar  1 <1>  -0.1500 
  5 C        0.3780     3.8890     0.3630 C.ar  1 <1>   0.0860 
  6 C        2.0970     3.1570    -1.1970 C.ar  1 <1>  -0.1500 
  7 C       -0.5620     4.9010     0.8080 C.2   1 <1>   0.5440 
  8 C        1.2020     4.1130    -0.7440 C.ar  1 <1>  -0.1500 
  9 O       -0.1750     6.0430     0.9600 O.2   1 <1>  -0.5700 
 10 N       -1.8880     4.6090     1.0490 N.am  1 <1>  -0.6600 
 11 C       -2.8100     5.5990     1.6880 C.3   1 <1>   0.1400 
 12 C       -2.6080     3.4400     0.4560 C.3   1 <1>   0.1400 
 13 C       -3.9350     5.9990     0.7210 C.3   1 <1>   0.1960 
 14 C       -3.7600     3.9030    -0.4550 C.3   1 <1>   0.1960 
 15 N       -4.6770     4.8190     0.2390 N.am  1 <1>  -0.8490 
 16 S       -5.9500     5.2580    -0.7750 S.o2  1 <1>   1.5760 
 17 O       -6.5850     4.0500    -1.2500 O.2   1 <1>  -0.6500 
 18 O       -5.4510     6.2370    -1.7140 O.2   1 <1>  -0.6500 
 19 N       -6.9550     6.0290     0.3420 N.am  1 <1>  -0.8490 
 20 C       -7.9500     6.9120    -0.2890 C.3   1 <1>   0.1960 
 21 C       -7.6110     5.1120     1.2930 C.3   1 <1>   0.1960 
 22 C       -9.1550     6.1330    -0.8500 C.3   1 <1>   0.1200 
 23 C       -8.8810     4.4320     0.7310 C.3   1 <1>   0.1200 
 24 O       -9.7460     5.3760     0.1650 O.3   1 <1>  -0.5600 
 25 H       -0.1030     2.4570     1.8880 H     1 <1>   0.1500 
 26 H        2.8830     1.1830    -0.8780 H     1 <1>   0.1500 
 27 H        2.7170     3.3620    -2.0550 H     1 <1>   0.1500 
 28 H        1.1320     5.0620    -1.2500 H     1 <1>   0.1500 
 29 H       -2.2730     6.4810     1.9900 H     1 <1>   0.0800 
 30 H       -3.2420     5.1610     2.5700 H     1 <1>   0.0800 
 31 H       -3.0100     2.8330     1.2490 H     1 <1>   0.0800 
 32 H       -1.9380     2.8310    -0.1240 H     1 <1>   0.0800 
 33 H       -3.5060     6.5380    -0.1080 H     1 <1>   0.0800 
 34 H       -4.6070     6.6660     1.2340 H     1 <1>   0.0800 
 35 H       -4.3030     3.0340    -0.7870 H     1 <1>   0.0800 
 36 H       -3.3490     4.3880    -1.3260 H     1 <1>   0.0800 
 37 H       -7.4920     7.4910    -1.0720 H     1 <1>   0.0800 
 38 H       -8.3130     7.6070     0.4480 H     1 <1>   0.0800 
 39 H       -7.8980     5.6750     2.1640 H     1 <1>   0.0800 
 40 H       -6.9140     4.3580     1.6180 H     1 <1>   0.0800 
 41 H       -8.8590     5.4760    -1.6500 H     1 <1>   0.0800 
 42 H       -9.8960     6.8170    -1.2220 H     1 <1>   0.0800 
 43 H       -9.4130     3.9390     1.5240 H     1 <1>   0.0800 
 44 H       -8.6400     3.6980    -0.0160 H     1 <1>   0.0800 
@<TRIPOS>BOND
  1   1   2  1   
  2   2   3  ar  
  3   2   4  ar  
  4   3   5  ar  
  5   3  25  1   
  6   4   6  ar  
  7   4  26  1   
  8   5   7  1   
  9   5   8  ar  
 10   6   8  ar  
 11   6  27  1   
 12   7   9  2   
 13   7  10  am  
 14   8  28  1   
 15  10  11  1   
 16  10  12  1   
 17  11  13  1   
 18  11  29  1   
 19  11  30  1   
 20  12  14  1   
 21  12  31  1   
 22  12  32  1   
 23  13  15  1   
 24  13  33  1   
 25  13  34  1   
 26  14  15  1   
 27  14  35  1   
 28  14  36  1   
 29  15  16  am  
 30  16  17  2   
 31  16  18  2   
 32  16  19  am  
 33  19  20  1   
 34  19  21  1   
 35  20  22  1   
 36  20  37  1   
 37  20  38  1   
 38  21  23  1   
 39  21  39  1   
 40  21  40  1   
 41  22  24  1   
 42  22  41  1   
 43  22  42  1   
 44  23  24  1   
 45  23  43  1   
 46  23  44  1   
@<TRIPOS>SUBSTRUCTURE
  1 ****  14 GROUP 4 **** **** 0

# MOE 2024.06 (io_trps.svl 2023.06)
