@<TRIPOS>MOLECULE
8-(4-Ethyl-piperazin-1-yl)-7-(2-hydroxy-propyl)-3-methyl-3,7-dihydro-purine-2,6-
50 52 1 0 0 
SMALL
USER_CHARGES


@<TRIPOS>ATOM
  1 O        1.0510     0.4000     1.3120 O.2   1 <1>  -0.5750 
  2 C        2.0540     0.9630     0.9400 C.2   1 <1>   0.6860 
  3 N        3.3070     0.3750     1.0250 N.am  1 <1>  -0.4420 
  4 N        1.9390     2.2140     0.4100 N.am  1 <1>  -0.4950 
  5 C        4.3900     1.1040     0.5550 C.2   1 <1>   0.4200 
  6 C        3.4690    -0.9920     1.6020 C.3   1 <1>   0.0520 
  7 C        2.9940     2.9340    -0.0710 C.2   1 <1>   0.6990 
  8 N        5.6850     0.6990     0.4820 N.pl3 1 <1>  -0.7040 
  9 C        4.3030     2.3580     0.0570 C.2   1 <1>   0.2700 
 10 O        2.7710     3.9960    -0.6170 O.2   1 <1>  -0.5750 
 11 C        6.4120     1.6930    -0.0270 C.cat 1 <1>   1.0680 
 12 N        5.6200     2.7470    -0.2750 N.pl3 1 <1>  -0.7680 
 13 N        7.7300     1.5430    -0.2990 N.pl3 1 <1>  -0.5970 
 14 C        5.9240     4.0560    -0.9540 C.3   1 <1>   0.3480 
 15 C        8.7610     2.5420     0.1400 C.3   1 <1>   0.1600 
 16 C        8.2140     0.4580    -1.2200 C.3   1 <1>   0.1600 
 17 C        6.1680     5.2620    -0.0030 C.3   1 <1>   0.1930 
 18 C       10.1420     1.9270     0.4520 C.3   1 <1>   0.3370 
 19 C        9.5970    -0.1110    -0.8320 C.3   1 <1>   0.3370 
 20 O        7.2290     5.0030     0.8420 O.3   1 <1>  -0.6840 
 21 C        4.9940     5.6490     0.8940 C.3   1 <1>  -0.2470 
 22 N       10.6070     0.9700    -0.6080 N.4   1 <1>  -0.9610 
 23 C       11.9310     0.3800    -0.2700 C.3   1 <1>   0.3370 
 24 C       13.0170     1.4340    -0.4430 C.3   1 <1>  -0.2470 
 25 H        1.0020     2.6040     0.3310 H     1 <1>   0.3640 
 26 H        2.5920    -1.2750     2.1600 H     1 <1>   0.0720 
 27 H        4.3100    -1.0160     2.2720 H     1 <1>   0.0720 
 28 H        3.6140    -1.7070     0.8110 H     1 <1>   0.0720 
 29 H        6.0410    -0.1970     0.8000 H     1 <1>   0.4440 
 30 H        5.1070     4.3070    -1.6100 H     1 <1>   0.0720 
 31 H        6.7900     3.9410    -1.5800 H     1 <1>   0.0720 
 32 H        8.4280     3.0050     1.0500 H     1 <1>   0.0720 
 33 H        8.8710     3.3060    -0.6100 H     1 <1>   0.0720 
 34 H        8.2800     0.8590    -2.2180 H     1 <1>   0.0720 
 35 H        7.5020    -0.3490    -1.2510 H     1 <1>   0.0720 
 36 H        6.4400     6.1160    -0.6010 H     1 <1>   0.0720 
 37 H       10.0840     1.4100     1.3960 H     1 <1>   0.0720 
 38 H       10.8580     2.7250     0.5660 H     1 <1>   0.0720 
 39 H        9.9390    -0.7680    -1.6160 H     1 <1>   0.0720 
 40 H        9.4960    -0.6990     0.0650 H     1 <1>   0.0720 
 41 H        7.3260     5.7530     1.4680 H     1 <1>   0.3940 
 42 H        4.7040     4.8360     1.5330 H     1 <1>   0.0720 
 43 H        4.1520     5.9360     0.2900 H     1 <1>   0.0720 
 44 H        5.2520     6.4990     1.5020 H     1 <1>   0.0720 
 45 H       10.7400     1.4930    -1.4860 H     1 <1>   0.4440 
 46 H       12.1420    -0.4440    -0.9340 H     1 <1>   0.0720 
 47 H       11.9310     0.0070     0.7420 H     1 <1>   0.0720 
 48 H       13.0160     1.8290    -1.4430 H     1 <1>   0.0720 
 49 H       13.9760     0.9770    -0.2710 H     1 <1>   0.0720 
 50 H       12.9110     2.2350     0.2660 H     1 <1>   0.0720 
@<TRIPOS>BOND
  1   1   2  2   
  2   2   3  am  
  3   2   4  am  
  4   3   5  1   
  5   3   6  1   
  6   4   7  am  
  7   4  25  1   
  8   5   8  1   
  9   5   9  2   
 10   6  26  1   
 11   6  27  1   
 12   6  28  1   
 13   7   9  1   
 14   7  10  2   
 15   8  11  ar  
 16   8  29  1   
 17   9  12  1   
 18  11  12  ar  
 19  11  13  ar  
 20  12  14  1   
 21  13  15  1   
 22  13  16  1   
 23  14  17  1   
 24  14  30  1   
 25  14  31  1   
 26  15  18  1   
 27  15  32  1   
 28  15  33  1   
 29  16  19  1   
 30  16  34  1   
 31  16  35  1   
 32  17  20  1   
 33  17  21  1   
 34  17  36  1   
 35  18  22  1   
 36  18  37  1   
 37  18  38  1   
 38  19  22  1   
 39  19  39  1   
 40  19  40  1   
 41  20  41  1   
 42  21  42  1   
 43  21  43  1   
 44  21  44  1   
 45  22  23  1   
 46  22  45  1   
 47  23  24  1   
 48  23  46  1   
 49  23  47  1   
 50  24  48  1   
 51  24  49  1   
 52  24  50  1   
@<TRIPOS>SUBSTRUCTURE
  1 ****  11 GROUP 4 **** **** 0

# MOE 2024.06 (io_trps.svl 2023.06)
