@<TRIPOS>MOLECULE
3-(2-Hydroxy-phenyl)-4,5-dihydro-isoxazole-5-carboxylic acid (3-cyano-4,5,6,7-te
43 46 1 0 0 
SMALL
USER_CHARGES


@<TRIPOS>ATOM
  1 S       -1.7610     0.2690    -0.9590 S.3   1 <1>  -0.0800 
  2 C       -2.6360     0.9000     0.4310 C.2   1 <1>   0.1040 
  3 C       -0.5920     1.5680    -0.8750 C.2   1 <1>  -0.1400 
  4 N       -3.7390     0.1430     0.8180 N.am  1 <1>  -0.4940 
  5 C       -2.0590     2.0540     0.8770 C.2   1 <1>   0.0190 
  6 C       -0.8870     2.4150     0.1210 C.2   1 <1>  -0.1810 
  7 C        0.5630     1.6320    -1.8510 C.3   1 <1>   0.0200 
  8 C       -4.3240    -0.0170     2.0450 C.2   1 <1>   0.5690 
  9 C       -2.5330     2.8940     1.9360 C.1   1 <1>   0.5380 
 10 C       -0.0210     3.6390     0.3950 C.3   1 <1>   0.0210 
 11 C        1.5900     2.6600    -1.3440 C.3   1 <1>  -0.1600 
 12 O       -3.8760     0.4740     3.0520 O.2   1 <1>  -0.5700 
 13 C       -5.5950    -0.8580     2.1370 C.3   1 <1>   0.2610 
 14 N       -2.8730     3.6430     2.7280 N.1   1 <1>  -0.5570 
 15 C        0.9130     3.9340    -0.7960 C.3   1 <1>  -0.1600 
 16 O       -5.6240    -1.7770     1.0620 O.3   1 <1>  -0.2170 
 17 C       -6.8580    -0.0410     1.9070 C.3   1 <1>  -0.0990 
 18 N       -6.4880    -1.4380     0.1330 N.2   1 <1>  -0.5130 
 19 C       -7.2320    -0.4780     0.5130 C.2   1 <1>   0.3030 
 20 C       -8.2830     0.1470    -0.2740 C.ar  1 <1>   0.0860 
 21 C       -9.2580     1.0350     0.2210 C.ar  1 <1>   0.0820 
 22 C       -8.3520    -0.1420    -1.6420 C.ar  1 <1>  -0.1500 
 23 O       -9.3160     1.3750     1.5200 O.3   1 <1>  -0.5320 
 24 C      -10.2180     1.5960    -0.6090 C.ar  1 <1>  -0.1500 
 25 C       -9.3080     0.4140    -2.4700 C.ar  1 <1>  -0.1500 
 26 C      -10.2450     1.2880    -1.9540 C.ar  1 <1>  -0.1500 
 27 H       -4.1350    -0.4790     0.1020 H     1 <1>   0.3700 
 28 H        0.1880     1.9260    -2.8150 H     1 <1>   0.0800 
 29 H        1.0250     0.6650    -1.9420 H     1 <1>   0.0800 
 30 H        0.5650     3.4560     1.2790 H     1 <1>   0.0800 
 31 H       -0.6390     4.5020     0.5760 H     1 <1>   0.0800 
 32 H        2.2650     2.9150    -2.1430 H     1 <1>   0.0800 
 33 H        2.1700     2.2110    -0.5550 H     1 <1>   0.0800 
 34 H       -5.6240    -1.4060     3.0600 H     1 <1>   0.0800 
 35 H        1.6630     4.6430    -0.4920 H     1 <1>   0.0800 
 36 H        0.3370     4.3850    -1.5860 H     1 <1>   0.0800 
 37 H       -6.6690     1.0160     1.9680 H     1 <1>   0.0800 
 38 H       -7.6170    -0.3240     2.6120 H     1 <1>   0.0800 
 39 H       -7.6350    -0.8210    -2.0710 H     1 <1>   0.1500 
 40 H      -10.0450     1.9860     1.7320 H     1 <1>   0.4500 
 41 H      -10.9530     2.2740    -0.2140 H     1 <1>   0.1500 
 42 H       -9.3240     0.1650    -3.5180 H     1 <1>   0.1500 
 43 H      -10.9910     1.7230    -2.5990 H     1 <1>   0.1500 
@<TRIPOS>BOND
  1   1   2  1   
  2   1   3  1   
  3   2   4  1   
  4   2   5  2   
  5   3   6  2   
  6   3   7  1   
  7   4   8  am  
  8   4  27  1   
  9   5   6  1   
 10   5   9  1   
 11   6  10  1   
 12   7  11  1   
 13   7  28  1   
 14   7  29  1   
 15   8  12  2   
 16   8  13  1   
 17   9  14  3   
 18  10  15  1   
 19  10  30  1   
 20  10  31  1   
 21  11  15  1   
 22  11  32  1   
 23  11  33  1   
 24  13  16  1   
 25  13  17  1   
 26  13  34  1   
 27  15  35  1   
 28  15  36  1   
 29  16  18  1   
 30  17  19  1   
 31  17  37  1   
 32  17  38  1   
 33  18  19  2   
 34  19  20  1   
 35  20  21  ar  
 36  20  22  ar  
 37  21  23  1   
 38  21  24  ar  
 39  22  25  ar  
 40  22  39  1   
 41  23  40  1   
 42  24  26  ar  
 43  24  41  1   
 44  25  26  ar  
 45  25  42  1   
 46  26  43  1   
@<TRIPOS>SUBSTRUCTURE
  1 ****   4 GROUP 4 **** **** 0

# MOE 2024.06 (io_trps.svl 2023.06)
