@<TRIPOS>MOLECULE
Morpholine-4-carboxylic acid (2-benzenesulfonylamino-ethyl)-amide
40 41 1 0 0 
SMALL
USER_CHARGES


@<TRIPOS>ATOM
  1 S        0.0150     0.8800    -0.9380 S.o2  1 <1>   1.4470 
  2 O        0.7380    -0.1150    -1.6940 O.2   1 <1>  -0.6500 
  3 O       -0.2250     2.1930    -1.4930 O.2   1 <1>  -0.6500 
  4 N        0.9530     1.0960     0.4370 N.am  1 <1>  -0.9140 
  5 C       -1.5280     0.1870    -0.2830 C.ar  1 <1>  -0.0090 
  6 C        2.0900     1.9830     0.2070 C.3   1 <1>   0.1960 
  7 C       -1.9960    -1.0560    -0.6960 C.ar  1 <1>  -0.1500 
  8 C       -2.2820     0.8870     0.6520 C.ar  1 <1>  -0.1500 
  9 C        2.8600     2.2010     1.5130 C.3   1 <1>   0.1400 
 10 C       -3.1740    -1.5830    -0.1930 C.ar  1 <1>  -0.1500 
 11 C       -3.4600     0.3680     1.1600 C.ar  1 <1>  -0.1500 
 12 N        4.0370     3.0750     1.2850 N.am  1 <1>  -0.7300 
 13 C       -3.9070    -0.8700     0.7370 C.ar  1 <1>  -0.1500 
 14 C        5.2160     2.6330     0.7840 C.2   1 <1>   0.6900 
 15 O        5.3130     1.4780     0.4130 O.2   1 <1>  -0.5700 
 16 N        6.2800     3.4880     0.7190 N.am  1 <1>  -0.6600 
 17 C        7.6600     2.9900     0.4410 C.3   1 <1>   0.1400 
 18 C        6.1560     4.9710     0.5950 C.3   1 <1>   0.1400 
 19 C        8.2020     3.5930    -0.8640 C.3   1 <1>   0.1200 
 20 C        6.7950     5.4610    -0.7160 C.3   1 <1>   0.1200 
 21 O        8.1070     4.9900    -0.8370 O.3   1 <1>  -0.5600 
 22 H        1.3450     0.1680     0.5920 H     1 <1>   0.4200 
 23 H        1.7420     2.9370    -0.1510 H     1 <1>   0.0800 
 24 H        2.7440     1.5500    -0.5340 H     1 <1>   0.0800 
 25 H       -1.4330    -1.6200    -1.4220 H     1 <1>   0.1500 
 26 H       -1.9400     1.8530     0.9840 H     1 <1>   0.1500 
 27 H        3.1980     1.2530     1.8950 H     1 <1>   0.0800 
 28 H        2.2130     2.6590     2.2410 H     1 <1>   0.0800 
 29 H       -3.5200    -2.5470    -0.5270 H     1 <1>   0.1500 
 30 H       -4.0290     0.9280     1.8830 H     1 <1>   0.1500 
 31 H        4.0670     3.9450     1.8110 H     1 <1>   0.3700 
 32 H       -4.8240    -1.2770     1.1290 H     1 <1>   0.1500 
 33 H        7.6710     1.9160     0.3690 H     1 <1>   0.0800 
 34 H        8.3060     3.2700     1.2550 H     1 <1>   0.0800 
 35 H        6.6540     5.4380     1.4270 H     1 <1>   0.0800 
 36 H        5.1240     5.2720     0.6090 H     1 <1>   0.0800 
 37 H        7.6490     3.2220    -1.7090 H     1 <1>   0.0800 
 38 H        9.2390     3.3360    -0.9890 H     1 <1>   0.0800 
 39 H        6.8290     6.5360    -0.7350 H     1 <1>   0.0800 
 40 H        6.2270     5.1180    -1.5640 H     1 <1>   0.0800 
@<TRIPOS>BOND
  1   1   2  2   
  2   1   3  2   
  3   1   4  am  
  4   1   5  1   
  5   4   6  1   
  6   4  22  1   
  7   5   7  ar  
  8   5   8  ar  
  9   6   9  1   
 10   6  23  1   
 11   6  24  1   
 12   7  10  ar  
 13   7  25  1   
 14   8  11  ar  
 15   8  26  1   
 16   9  12  1   
 17   9  27  1   
 18   9  28  1   
 19  10  13  ar  
 20  10  29  1   
 21  11  13  ar  
 22  11  30  1   
 23  12  14  am  
 24  12  31  1   
 25  13  32  1   
 26  14  15  2   
 27  14  16  am  
 28  16  17  1   
 29  16  18  1   
 30  17  19  1   
 31  17  33  1   
 32  17  34  1   
 33  18  20  1   
 34  18  35  1   
 35  18  36  1   
 36  19  21  1   
 37  19  37  1   
 38  19  38  1   
 39  20  21  1   
 40  20  39  1   
 41  20  40  1   
@<TRIPOS>SUBSTRUCTURE
  1 ****   6 GROUP 4 **** **** 0

# MOE 2024.06 (io_trps.svl 2023.06)
