@<TRIPOS>MOLECULE
1-(3-Chloro-4-methoxy-benzenesulfonyl)-piperidine-4-carboxylic acid (3-methoxy-p
51 52 1 0 0 
SMALL
USER_CHARGES


@<TRIPOS>ATOM
  1 CL       2.6580    -0.2580     3.0770 Cl    1 <1>  -0.1770 
  2 C        2.4930     0.2620     1.4140 C.ar  1 <1>   0.1770 
  3 C        1.6500    -0.4210     0.5450 C.ar  1 <1>   0.0820 
  4 C        3.2210     1.3600     1.0000 C.ar  1 <1>  -0.1500 
  5 O        0.9640    -1.4950     1.0160 O.3   1 <1>  -0.3630 
  6 C        1.5530     0.0320    -0.7680 C.ar  1 <1>  -0.1500 
  7 C        3.1340     1.8150    -0.3100 C.ar  1 <1>  -0.0090 
  8 C        0.0680    -2.2210     0.2040 C.3   1 <1>   0.0400 
  9 C        2.2870     1.1330    -1.1790 C.ar  1 <1>  -0.1500 
 10 S        4.0870     3.2570    -0.8610 S.o2  1 <1>   1.4470 
 11 O        4.2400     3.2280    -2.3000 O.2   1 <1>  -0.6500 
 12 O        3.5480     4.4420    -0.2290 O.2   1 <1>  -0.6500 
 13 N        5.6240     2.9780    -0.2010 N.am  1 <1>  -0.8490 
 14 C        6.4170     4.2090    -0.1460 C.3   1 <1>   0.1960 
 15 C        6.3380     1.9060    -0.9030 C.3   1 <1>   0.1960 
 16 C        7.7340     3.9600     0.5950 C.3   1 <1>  -0.1600 
 17 C        7.6420     1.5750    -0.1740 C.3   1 <1>  -0.1600 
 18 C        8.5380     2.8180    -0.0490 C.3   1 <1>  -0.0190 
 19 C        9.8140     2.5130     0.7350 C.2   1 <1>   0.5690 
 20 O        9.7340     2.1380     1.8800 O.2   1 <1>  -0.5700 
 21 N       11.0120     2.6730     0.1150 N.am  1 <1>  -0.7300 
 22 C       12.3240     2.3830     0.7300 C.3   1 <1>   0.1400 
 23 C       13.1760     1.5950    -0.2620 C.3   1 <1>  -0.1600 
 24 C       14.5270     1.2360     0.3490 C.3   1 <1>   0.1200 
 25 O       15.2610     0.5680    -0.6210 O.3   1 <1>  -0.5600 
 26 C       16.5180     0.1540    -0.1940 C.3   1 <1>   0.0400 
 27 H        3.8610     1.8640     1.7030 H     1 <1>   0.1500 
 28 H        0.9160    -0.4570    -1.4810 H     1 <1>   0.1500 
 29 H       -0.3560    -3.0090     0.7990 H     1 <1>   0.0800 
 30 H        0.6090    -2.6420    -0.6250 H     1 <1>   0.0800 
 31 H       -0.7100    -1.5610    -0.1360 H     1 <1>   0.0800 
 32 H        2.2000     1.4730    -2.1990 H     1 <1>   0.1500 
 33 H        5.8700     4.9720     0.3820 H     1 <1>   0.0800 
 34 H        6.6100     4.5650    -1.1450 H     1 <1>   0.0800 
 35 H        6.5510     2.2060    -1.9160 H     1 <1>   0.0800 
 36 H        5.7250     1.0210    -0.9360 H     1 <1>   0.0800 
 37 H        7.5120     3.7150     1.6200 H     1 <1>   0.0800 
 38 H        8.3200     4.8610     0.5950 H     1 <1>   0.0800 
 39 H        8.1660     0.8030    -0.7080 H     1 <1>   0.0800 
 40 H        7.4060     1.1930     0.8050 H     1 <1>   0.0800 
 41 H        8.8180     3.1260    -1.0400 H     1 <1>   0.0800 
 42 H       11.0470     3.0000    -0.8510 H     1 <1>   0.3700 
 43 H       12.1870     1.8120     1.6330 H     1 <1>   0.0800 
 44 H       12.8090     3.3110     0.9830 H     1 <1>   0.0800 
 45 H       13.3400     2.1850    -1.1450 H     1 <1>   0.0800 
 46 H       12.6650     0.6860    -0.5270 H     1 <1>   0.0800 
 47 H       14.4010     0.5850     1.1990 H     1 <1>   0.0800 
 48 H       15.0660     2.1220     0.6390 H     1 <1>   0.0800 
 49 H       17.0010    -0.3470    -1.0150 H     1 <1>   0.0800 
 50 H       16.4070    -0.5290     0.6310 H     1 <1>   0.0800 
 51 H       17.0970     1.0130     0.0970 H     1 <1>   0.0800 
@<TRIPOS>BOND
  1   1   2  1   
  2   2   3  ar  
  3   2   4  ar  
  4   3   5  1   
  5   3   6  ar  
  6   4   7  ar  
  7   4  27  1   
  8   5   8  1   
  9   6   9  ar  
 10   6  28  1   
 11   7   9  ar  
 12   7  10  1   
 13   8  29  1   
 14   8  30  1   
 15   8  31  1   
 16   9  32  1   
 17  10  11  2   
 18  10  12  2   
 19  10  13  am  
 20  13  14  1   
 21  13  15  1   
 22  14  16  1   
 23  14  33  1   
 24  14  34  1   
 25  15  17  1   
 26  15  35  1   
 27  15  36  1   
 28  16  18  1   
 29  16  37  1   
 30  16  38  1   
 31  17  18  1   
 32  17  39  1   
 33  17  40  1   
 34  18  19  1   
 35  18  41  1   
 36  19  20  2   
 37  19  21  am  
 38  21  22  1   
 39  21  42  1   
 40  22  23  1   
 41  22  43  1   
 42  22  44  1   
 43  23  24  1   
 44  23  45  1   
 45  23  46  1   
 46  24  25  1   
 47  24  47  1   
 48  24  48  1   
 49  25  26  1   
 50  26  49  1   
 51  26  50  1   
 52  26  51  1   
@<TRIPOS>SUBSTRUCTURE
  1 ****  17 GROUP 4 **** **** 0

# MOE 2024.06 (io_trps.svl 2023.06)
