@<TRIPOS>MOLECULE
2-Phenethyl-5-propyl-4H-[1,2,4]triazolo[1,5-a]pyrimidin-7-one
40 42 1 0 0 
SMALL
USER_CHARGES


@<TRIPOS>ATOM
  1 O       -0.3360    -0.6540     1.4980 O.2   1 <1>  -0.5760 
  2 C       -0.3300    -1.6920     0.8760 C.2   1 <1>   0.9720 
  3 N       -1.5250    -2.2400     0.4120 N.pl3 1 <1>  -0.3690 
  4 C        0.8720    -2.3970     0.5890 C.2   1 <1>  -0.1450 
  5 N       -2.8230    -1.7980     0.5300 N.2   1 <1>  -0.2680 
  6 C       -1.5050    -3.3710    -0.2650 C.cat 1 <1>   1.0690 
  7 C        0.8530    -3.5580    -0.1090 C.2   1 <1>   0.1560 
  8 C       -3.5200    -2.6840    -0.0800 C.2   1 <1>   0.4790 
  9 N       -2.7360    -3.6800    -0.5890 N.pl3 1 <1>  -0.7040 
 10 N       -0.3700    -4.0380    -0.5360 N.pl3 1 <1>  -0.6940 
 11 C        2.0670    -4.4050    -0.4800 C.3   1 <1>  -0.0320 
 12 C       -5.0310    -2.6960    -0.2590 C.3   1 <1>  -0.0020 
 13 C        3.4090    -3.8410     0.0100 C.3   1 <1>  -0.1690 
 14 C       -5.7370    -1.4940     0.3810 C.3   1 <1>  -0.0270 
 15 C        4.5720    -4.7480    -0.4020 C.3   1 <1>  -0.2480 
 16 C       -7.2310    -1.6070     0.1440 C.ar  1 <1>  -0.1530 
 17 C       -8.0340    -2.2770     1.0540 C.ar  1 <1>  -0.1590 
 18 C       -7.8020    -1.0520    -0.9910 C.ar  1 <1>  -0.1590 
 19 C       -9.3950    -2.3950     0.8290 C.ar  1 <1>  -0.1590 
 20 C       -9.1620    -1.1700    -1.2160 C.ar  1 <1>  -0.1590 
 21 C       -9.9590    -1.8430    -0.3070 C.ar  1 <1>  -0.1590 
 22 H        1.7710    -1.9440     0.9630 H     1 <1>   0.1410 
 23 H       -3.0670    -4.4880    -1.1120 H     1 <1>   0.4430 
 24 H       -0.4160    -4.9120    -1.0650 H     1 <1>   0.4430 
 25 H        2.1090    -4.5010    -1.5520 H     1 <1>   0.0700 
 26 H        1.9410    -5.3910    -0.0670 H     1 <1>   0.0700 
 27 H       -5.4250    -3.5980     0.1740 H     1 <1>   0.0700 
 28 H       -5.2570    -2.7090    -1.3100 H     1 <1>   0.0700 
 29 H        3.4030    -3.7570     1.0840 H     1 <1>   0.0700 
 30 H        3.5720    -2.8620    -0.4090 H     1 <1>   0.0700 
 31 H       -5.3730    -0.5750    -0.0460 H     1 <1>   0.0700 
 32 H       -5.5420    -1.4660     1.4400 H     1 <1>   0.0700 
 33 H        4.4580    -5.7310     0.0200 H     1 <1>   0.0700 
 34 H        5.5010    -4.3350    -0.0500 H     1 <1>   0.0700 
 35 H        4.6260    -4.8350    -1.4740 H     1 <1>   0.0700 
 36 H       -7.6110    -2.7090     1.9430 H     1 <1>   0.1410 
 37 H       -7.1970    -0.5230    -1.7050 H     1 <1>   0.1410 
 38 H      -10.0150    -2.9150     1.5370 H     1 <1>   0.1410 
 39 H       -9.6020    -0.7380    -2.0980 H     1 <1>   0.1410 
 40 H      -11.0160    -1.9350    -0.4820 H     1 <1>   0.1410 
@<TRIPOS>BOND
  1   1   2  2   
  2   2   3  1   
  3   2   4  1   
  4   3   5  1   
  5   3   6  ar  
  6   4   7  2   
  7   4  22  1   
  8   5   8  2   
  9   6   9  ar  
 10   6  10  ar  
 11   7  10  1   
 12   7  11  1   
 13   8   9  1   
 14   8  12  1   
 15   9  23  1   
 16  10  24  1   
 17  11  13  1   
 18  11  25  1   
 19  11  26  1   
 20  12  14  1   
 21  12  27  1   
 22  12  28  1   
 23  13  15  1   
 24  13  29  1   
 25  13  30  1   
 26  14  16  1   
 27  14  31  1   
 28  14  32  1   
 29  15  33  1   
 30  15  34  1   
 31  15  35  1   
 32  16  17  ar  
 33  16  18  ar  
 34  17  19  ar  
 35  17  36  1   
 36  18  20  ar  
 37  18  37  1   
 38  19  21  ar  
 39  19  38  1   
 40  20  21  ar  
 41  20  39  1   
 42  21  40  1   
@<TRIPOS>SUBSTRUCTURE
  1 ****   8 GROUP 4 **** **** 0

# MOE 2024.06 (io_trps.svl 2023.06)
