@<TRIPOS>MOLECULE
N-(5-Fluoro-2-methyl-phenyl)-2-(4-phenyl-piperazin-1-yl)-acetamide
46 48 1 0 0 
SMALL
USER_CHARGES


@<TRIPOS>ATOM
  1 F        1.3200    -1.0560     0.6060 F     1 <1>  -0.1900 
  2 C        2.4410    -1.4500     0.0620 C.ar  1 <1>   0.1900 
  3 C        3.6030    -0.7750     0.3660 C.ar  1 <1>  -0.1500 
  4 C        2.4130    -2.5290    -0.7980 C.ar  1 <1>  -0.1500 
  5 C        4.8010    -1.1890    -0.2080 C.ar  1 <1>   0.1170 
  6 C        3.6030    -2.9420    -1.3720 C.ar  1 <1>  -0.1500 
  7 N        6.0170    -0.5410     0.0610 N.am  1 <1>  -0.5470 
  8 C        4.7900    -2.2820    -1.0840 C.ar  1 <1>  -0.1430 
  9 C        6.4170     0.3950     0.9700 C.2   1 <1>   0.5690 
 10 C        6.0770    -2.7730    -1.7390 C.3   1 <1>  -0.0960 
 11 O        5.6990     0.9050     1.7960 O.2   1 <1>  -0.5700 
 12 C        7.8940     0.7900     0.9100 C.3   1 <1>   0.1710 
 13 N        8.7610    -0.2510     0.2770 N.3   1 <1>  -0.8100 
 14 C        8.9840    -1.3870     1.2090 C.3   1 <1>   0.1100 
 15 C       10.0730     0.3210    -0.1060 C.3   1 <1>   0.1100 
 16 C        9.8800    -2.4780     0.5940 C.3   1 <1>   0.2090 
 17 C       10.9950    -0.7280    -0.7570 C.3   1 <1>   0.2090 
 18 N       11.1790    -1.9090     0.1340 N.pl3 1 <1>  -0.8380 
 19 C       12.1400    -2.8310    -0.2610 C.ar  1 <1>   0.1000 
 20 C       13.2770    -3.0100     0.5150 C.ar  1 <1>  -0.1500 
 21 C       11.9940    -3.5890    -1.4180 C.ar  1 <1>  -0.1500 
 22 C       14.2490    -3.9220     0.1470 C.ar  1 <1>  -0.1500 
 23 C       12.9640    -4.5030    -1.7900 C.ar  1 <1>  -0.1500 
 24 C       14.0940    -4.6700    -1.0070 C.ar  1 <1>  -0.1500 
 25 H        3.5630     0.0590     1.0400 H     1 <1>   0.1500 
 26 H        1.4850    -3.0280    -1.0100 H     1 <1>   0.1500 
 27 H        3.5930    -3.7810    -2.0450 H     1 <1>   0.1500 
 28 H        6.8190    -0.8710    -0.4820 H     1 <1>   0.3700 
 29 H        6.5040    -1.9940    -2.3460 H     1 <1>   0.0800 
 30 H        5.8900    -3.6240    -2.3700 H     1 <1>   0.0800 
 31 H        6.7870    -3.0630    -0.9860 H     1 <1>   0.0800 
 32 H        8.2400     1.0060     1.9060 H     1 <1>   0.0800 
 33 H        7.9500     1.6980     0.3370 H     1 <1>   0.0800 
 34 H        8.0410    -1.8300     1.4800 H     1 <1>   0.0800 
 35 H        9.4530    -1.0330     2.1120 H     1 <1>   0.0800 
 36 H       10.5680     0.7200     0.7630 H     1 <1>   0.0800 
 37 H        9.9230     1.1260    -0.8050 H     1 <1>   0.0800 
 38 H        9.3710    -2.9320    -0.2370 H     1 <1>   0.0800 
 39 H       10.0710    -3.2410     1.3290 H     1 <1>   0.0800 
 40 H       11.9560    -0.2860    -0.9580 H     1 <1>   0.0800 
 41 H       10.5690    -1.0430    -1.6930 H     1 <1>   0.0800 
 42 H       13.3860    -2.4230     1.4080 H     1 <1>   0.1500 
 43 H       11.1180    -3.4580    -2.0240 H     1 <1>   0.1500 
 44 H       15.1260    -4.0490     0.7580 H     1 <1>   0.1500 
 45 H       12.8410    -5.0830    -2.6880 H     1 <1>   0.1500 
 46 H       14.8490    -5.3800    -1.2950 H     1 <1>   0.1500 
@<TRIPOS>BOND
  1   1   2  1   
  2   2   3  ar  
  3   2   4  ar  
  4   3   5  ar  
  5   3  25  1   
  6   4   6  ar  
  7   4  26  1   
  8   5   7  1   
  9   5   8  ar  
 10   6   8  ar  
 11   6  27  1   
 12   7   9  am  
 13   7  28  1   
 14   8  10  1   
 15   9  11  2   
 16   9  12  1   
 17  10  29  1   
 18  10  30  1   
 19  10  31  1   
 20  12  13  1   
 21  12  32  1   
 22  12  33  1   
 23  13  14  1   
 24  13  15  1   
 25  14  16  1   
 26  14  34  1   
 27  14  35  1   
 28  15  17  1   
 29  15  36  1   
 30  15  37  1   
 31  16  18  1   
 32  16  38  1   
 33  16  39  1   
 34  17  18  1   
 35  17  40  1   
 36  17  41  1   
 37  18  19  1   
 38  19  20  ar  
 39  19  21  ar  
 40  20  22  ar  
 41  20  42  1   
 42  21  23  ar  
 43  21  43  1   
 44  22  24  ar  
 45  22  44  1   
 46  23  24  ar  
 47  23  45  1   
 48  24  46  1   
@<TRIPOS>SUBSTRUCTURE
  1 ****  14 GROUP 4 **** **** 0

# MOE 2024.06 (io_trps.svl 2023.06)
