@<TRIPOS>MOLECULE
1,6,7-Trimethyl-3-propyl-8-(tetrahydro-furan-2-ylmethyl)-1H,8H-imidazo[2,1-f]pur
52 55 1 0 0 
SMALL
USER_CHARGES


@<TRIPOS>ATOM
  1 O        1.6850    -0.4940     0.6050 O.2   1 <1>  -0.5740 
  2 C        2.4320     0.4620     0.5640 C.2   1 <1>   0.6870 
  3 N        1.9180     1.7530     0.4780 N.am  1 <1>  -0.4250 
  4 N        3.8050     0.2610     0.6100 N.am  1 <1>  -0.4410 
  5 C        2.7540     2.8630     0.4580 C.2   1 <1>   0.7000 
  6 C        0.4410     1.9470     0.3800 C.3   1 <1>   0.1330 
  7 C        4.6270     1.3700     0.6090 C.2   1 <1>   0.4210 
  8 C        4.3750    -1.1160     0.7020 C.3   1 <1>   0.0530 
  9 O        2.2940     3.9910     0.3840 O.2   1 <1>  -0.5740 
 10 C        4.1620     2.6400     0.5270 C.2   1 <1>   0.2710 
 11 C        0.0070     1.9460    -1.0900 C.3   1 <1>  -0.1670 
 12 N        5.9860     1.3960     0.6710 N.pl3 1 <1>  -0.7030 
 13 N        5.2960     3.4740     0.5210 N.pl3 1 <1>  -0.6330 
 14 C       -1.5060     2.1450    -1.2190 C.3   1 <1>  -0.2460 
 15 C        6.3510     2.6740     0.6020 C.cat 1 <1>   1.0690 
 16 C        5.7810     4.7620     0.4420 C.2   1 <1>   0.2340 
 17 N        7.5030     3.3560     0.5850 N.pl3 1 <1>  -0.5720 
 18 C        7.1350     4.6910     0.4830 C.2   1 <1>   0.1580 
 19 C        4.8290     5.9370     0.3330 C.3   1 <1>  -0.1090 
 20 C        8.8820     2.7940     0.7490 C.3   1 <1>   0.1610 
 21 C        8.1660     5.8070     0.4350 C.3   1 <1>  -0.1090 
 22 C        9.2400     1.7170    -0.2930 C.3   1 <1>   0.1930 
 23 O        8.4050     0.6040    -0.1770 O.3   1 <1>  -0.5640 
 24 C       10.6400     1.1480    -0.1160 C.3   1 <1>  -0.1670 
 25 C        9.0160    -0.5030    -0.7670 C.3   1 <1>   0.1130 
 26 C       10.5200    -0.2540    -0.6890 C.3   1 <1>  -0.1670 
 27 H        0.1600     2.8780     0.8410 H     1 <1>   0.0730 
 28 H       -0.0700     1.1600     0.9090 H     1 <1>   0.0730 
 29 H        3.7000    -1.8320     0.2650 H     1 <1>   0.0730 
 30 H        4.5290    -1.3750     1.7350 H     1 <1>   0.0730 
 31 H        5.3110    -1.1740     0.1750 H     1 <1>   0.0730 
 32 H        0.2740     1.0070    -1.5440 H     1 <1>   0.0730 
 33 H        0.5070     2.7410    -1.6160 H     1 <1>   0.0730 
 34 H        6.6950     0.6610     0.5410 H     1 <1>   0.4450 
 35 H       -2.0350     1.3520    -0.7180 H     1 <1>   0.0730 
 36 H       -1.7900     2.1390    -2.2570 H     1 <1>   0.0730 
 37 H       -1.8020     3.0860    -0.7900 H     1 <1>   0.0730 
 38 H        4.2270     5.8410    -0.5530 H     1 <1>   0.0730 
 39 H        5.3650     6.8670     0.2840 H     1 <1>   0.0730 
 40 H        4.1780     5.9620     1.1880 H     1 <1>   0.0730 
 41 H        8.9770     2.3750     1.7360 H     1 <1>   0.0730 
 42 H        9.6030     3.5880     0.6690 H     1 <1>   0.0730 
 43 H        8.7560     5.8050     1.3340 H     1 <1>   0.0730 
 44 H        7.6900     6.7660     0.3470 H     1 <1>   0.0730 
 45 H        8.8160     5.6730    -0.4110 H     1 <1>   0.0730 
 46 H        9.1330     2.1070    -1.2920 H     1 <1>   0.0730 
 47 H       10.8940     1.0940     0.9290 H     1 <1>   0.0730 
 48 H       11.3810     1.7360    -0.6290 H     1 <1>   0.0730 
 49 H        8.6890    -0.5670    -1.7910 H     1 <1>   0.0730 
 50 H        8.7260    -1.3900    -0.2300 H     1 <1>   0.0730 
 51 H       11.0020    -0.9810    -0.0590 H     1 <1>   0.0730 
 52 H       10.9490    -0.3110    -1.6740 H     1 <1>   0.0730 
@<TRIPOS>BOND
  1   1   2  2   
  2   2   3  am  
  3   2   4  am  
  4   3   5  am  
  5   3   6  1   
  6   4   7  1   
  7   4   8  1   
  8   5   9  2   
  9   5  10  1   
 10   6  11  1   
 11   6  27  1   
 12   6  28  1   
 13   7  10  2   
 14   7  12  1   
 15   8  29  1   
 16   8  30  1   
 17   8  31  1   
 18  10  13  1   
 19  11  14  1   
 20  11  32  1   
 21  11  33  1   
 22  12  15  ar  
 23  12  34  1   
 24  13  15  ar  
 25  13  16  1   
 26  14  35  1   
 27  14  36  1   
 28  14  37  1   
 29  15  17  ar  
 30  16  18  2   
 31  16  19  1   
 32  17  18  1   
 33  17  20  1   
 34  18  21  1   
 35  19  38  1   
 36  19  39  1   
 37  19  40  1   
 38  20  22  1   
 39  20  41  1   
 40  20  42  1   
 41  21  43  1   
 42  21  44  1   
 43  21  45  1   
 44  22  23  1   
 45  22  24  1   
 46  22  46  1   
 47  23  25  1   
 48  24  26  1   
 49  24  47  1   
 50  24  48  1   
 51  25  26  1   
 52  25  49  1   
 53  25  50  1   
 54  26  51  1   
 55  26  52  1   
@<TRIPOS>SUBSTRUCTURE
  1 ****   7 GROUP 4 **** **** 0

# MOE 2024.06 (io_trps.svl 2023.06)
