@<TRIPOS>MOLECULE
2-[Cyano-(4,6-dimethyl-pyrimidin-2-yl)-amino]-malonic acid diethyl ester
39 39 1 0 0 
SMALL
USER_CHARGES


@<TRIPOS>ATOM
  1 O       -1.0990     0.1360    -0.5930 O.3   1 <1>  -0.8500 
  2 C       -1.8080    -0.8760    -0.6830 C.2   1 <1>  -0.0730 
  3 O       -3.0030    -0.8230    -0.0430 O.3   1 <1>  -0.3570 
  4 C       -1.4730    -2.0390    -1.4010 C.2   1 <1>   0.2050 
  5 C       -3.3730     0.2910     0.7400 C.3   1 <1>   0.1200 
  6 N       -2.5120    -3.0390    -1.4720 N.pl3 1 <1>  -0.5160 
  7 C       -0.2540    -2.3410    -2.0560 C.2   1 <1>   0.7060 
  8 C       -2.8000     0.1190     2.1470 C.3   1 <1>  -0.2400 
  9 C       -3.4950    -2.8520    -2.4490 C.1   1 <1>   0.6830 
 10 C       -2.5700    -4.0770    -0.5780 C.ar  1 <1>   0.8190 
 11 O       -0.1380    -3.2950    -2.8510 O.2   1 <1>  -0.5700 
 12 O        0.9240    -1.6910    -1.8880 O.3   1 <1>  -0.4300 
 13 N       -4.2870    -2.7250    -3.2620 N.1   1 <1>  -0.5570 
 14 N       -1.4820    -4.3090     0.1640 N.ar  1 <1>  -0.6200 
 15 N       -3.7010    -4.7940    -0.5200 N.ar  1 <1>  -0.6200 
 16 C        1.3320    -1.3150    -0.5920 C.3   1 <1>   0.1200 
 17 C       -1.5400    -5.2940     1.0180 C.ar  1 <1>   0.1670 
 18 C       -3.7370    -5.7760     0.3410 C.ar  1 <1>   0.1670 
 19 C        2.7530    -1.8270    -0.3780 C.3   1 <1>  -0.2400 
 20 C       -2.6650    -6.0710     1.1480 C.ar  1 <1>  -0.1500 
 21 C       -0.3060    -5.5370     1.8590 C.3   1 <1>  -0.0970 
 22 C       -5.0200    -6.5770     0.4080 C.3   1 <1>  -0.0970 
 23 H       -4.4450     0.3170     0.7690 H     1 <1>   0.0800 
 24 H       -3.0120     1.1880     0.2670 H     1 <1>   0.0800 
 25 H       -3.1580    -0.7970     2.5790 H     1 <1>   0.0800 
 26 H       -3.0930     0.9450     2.7650 H     1 <1>   0.0800 
 27 H       -1.7260     0.0930     2.0870 H     1 <1>   0.0800 
 28 H        0.6590    -1.7310     0.1390 H     1 <1>   0.0800 
 29 H        1.2950    -0.2400    -0.5340 H     1 <1>   0.0800 
 30 H        2.7700    -2.8990    -0.4550 H     1 <1>   0.0800 
 31 H        3.0930    -1.5430     0.6010 H     1 <1>   0.0800 
 32 H        3.4100    -1.3990    -1.1130 H     1 <1>   0.0800 
 33 H       -2.7040    -6.8780     1.8530 H     1 <1>   0.1500 
 34 H        0.5290    -5.7450     1.2150 H     1 <1>   0.0800 
 35 H       -0.4480    -6.3640     2.5290 H     1 <1>   0.0800 
 36 H       -0.0860    -4.6540     2.4310 H     1 <1>   0.0800 
 37 H       -5.8350    -5.9250     0.6650 H     1 <1>   0.0800 
 38 H       -4.9520    -7.3580     1.1410 H     1 <1>   0.0800 
 39 H       -5.2190    -7.0140    -0.5530 H     1 <1>   0.0800 
@<TRIPOS>BOND
  1   1   2  1   
  2   2   3  1   
  3   2   4  2   
  4   3   5  1   
  5   4   6  1   
  6   4   7  1   
  7   5   8  1   
  8   5  23  1   
  9   5  24  1   
 10   6   9  1   
 11   6  10  1   
 12   7  11  2   
 13   7  12  1   
 14   8  25  1   
 15   8  26  1   
 16   8  27  1   
 17   9  13  3   
 18  10  14  ar  
 19  10  15  ar  
 20  12  16  1   
 21  14  17  ar  
 22  15  18  ar  
 23  16  19  1   
 24  16  28  1   
 25  16  29  1   
 26  17  20  ar  
 27  17  21  1   
 28  18  20  ar  
 29  18  22  1   
 30  19  30  1   
 31  19  31  1   
 32  19  32  1   
 33  20  33  1   
 34  21  34  1   
 35  21  35  1   
 36  21  36  1   
 37  22  37  1   
 38  22  38  1   
 39  22  39  1   
@<TRIPOS>SUBSTRUCTURE
  1 ****   6 GROUP 4 **** **** 0

# MOE 2024.06 (io_trps.svl 2023.06)
