@<TRIPOS>MOLECULE
N-(1-Methyl-5-p-tolyl-1H-imidazol-2-yl)-N'-propyl-succinamide
49 50 1 0 0 
SMALL
USER_CHARGES


@<TRIPOS>ATOM
  1 O       -0.1070     0.8580     2.5090 O.2   1 <1>  -0.5750 
  2 C        0.1570     1.9340     2.0590 C.2   1 <1>   0.8490 
  3 N        1.2950     2.0350     1.3420 N.pl3 1 <1>  -0.7330 
  4 C       -0.7650     3.1060     2.3750 C.3   1 <1>  -0.1070 
  5 C        1.8360     3.0040     0.6120 C.cat 1 <1>   1.0690 
  6 C       -2.1780     2.9040     1.7900 C.3   1 <1>  -0.1070 
  7 N        1.1960     3.8500    -0.1670 N.pl3 1 <1>  -0.7040 
  8 N        3.1440     3.2260     0.5400 N.pl3 1 <1>  -0.7670 
  9 C       -2.1140     2.5920     0.3120 C.2   1 <1>   0.5640 
 10 C        2.1180     4.6610    -0.7730 C.2   1 <1>   0.1930 
 11 C        3.3440     4.2840    -0.3420 C.2   1 <1>   0.3030 
 12 C        4.2580     2.5770     1.2880 C.3   1 <1>   0.2670 
 13 O       -1.4730     3.3340    -0.3930 O.2   1 <1>  -0.5750 
 14 N       -2.6940     1.4630    -0.1510 N.am  1 <1>  -0.7340 
 15 C        4.6390     4.8220    -0.6770 C.ar  1 <1>   0.0330 
 16 C       -2.6540     0.9860    -1.5490 C.3   1 <1>   0.1330 
 17 C        5.5620     4.0740    -1.4040 C.ar  1 <1>  -0.1570 
 18 C        5.0040     6.1060    -0.2780 C.ar  1 <1>  -0.1570 
 19 C       -1.8110    -0.2870    -1.6110 C.3   1 <1>  -0.1670 
 20 C        6.8080     4.5870    -1.7140 C.ar  1 <1>  -0.1570 
 21 C        6.2490     6.6190    -0.5890 C.ar  1 <1>  -0.1570 
 22 C       -1.7110    -0.8170    -3.0440 C.3   1 <1>  -0.2470 
 23 C        7.1590     5.8620    -1.3060 C.ar  1 <1>  -0.1510 
 24 C        8.5260     6.4270    -1.6480 C.3   1 <1>  -0.1040 
 25 H        1.8120     1.1670     1.3660 H     1 <1>   0.4450 
 26 H       -0.3520     4.0280     2.0140 H     1 <1>   0.0720 
 27 H       -0.8440     3.1900     3.4440 H     1 <1>   0.0720 
 28 H       -2.7640     3.7950     1.9330 H     1 <1>   0.0720 
 29 H       -2.6690     2.0980     2.3070 H     1 <1>   0.0720 
 30 H        0.1790     3.8230    -0.3590 H     1 <1>   0.4450 
 31 H        1.8590     5.4410    -1.4720 H     1 <1>   0.1430 
 32 H        3.8820     1.9690     2.0920 H     1 <1>   0.0720 
 33 H        4.9060     3.3300     1.7050 H     1 <1>   0.0720 
 34 H        4.8360     1.9590     0.6210 H     1 <1>   0.0720 
 35 H       -3.2070     0.8520     0.4900 H     1 <1>   0.3640 
 36 H       -2.2280     1.7420    -2.1870 H     1 <1>   0.0720 
 37 H       -3.6570     0.7850    -1.8860 H     1 <1>   0.0720 
 38 H        5.3070     3.0840    -1.7360 H     1 <1>   0.1430 
 39 H        4.3160     6.7130     0.2830 H     1 <1>   0.1430 
 40 H       -2.2550    -1.0440    -0.9880 H     1 <1>   0.0720 
 41 H       -0.8210    -0.0780    -1.2460 H     1 <1>   0.0720 
 42 H        7.5070     3.9940    -2.2790 H     1 <1>   0.1430 
 43 H        6.5130     7.6140    -0.2720 H     1 <1>   0.1430 
 44 H       -2.6890    -1.0520    -3.4280 H     1 <1>   0.0720 
 45 H       -1.1150    -1.7130    -3.0650 H     1 <1>   0.0720 
 46 H       -1.2530    -0.0860    -3.6870 H     1 <1>   0.0720 
 47 H        9.2530     5.6390    -1.7240 H     1 <1>   0.0720 
 48 H        8.8510     7.1140    -0.8860 H     1 <1>   0.0720 
 49 H        8.4800     6.9480    -2.5870 H     1 <1>   0.0720 
@<TRIPOS>BOND
  1   1   2  2   
  2   2   3  1   
  3   2   4  1   
  4   3   5  ar  
  5   3  25  1   
  6   4   6  1   
  7   4  26  1   
  8   4  27  1   
  9   5   7  ar  
 10   5   8  ar  
 11   6   9  1   
 12   6  28  1   
 13   6  29  1   
 14   7  10  1   
 15   7  30  1   
 16   8  11  1   
 17   8  12  1   
 18   9  13  2   
 19   9  14  am  
 20  10  11  2   
 21  10  31  1   
 22  11  15  1   
 23  12  32  1   
 24  12  33  1   
 25  12  34  1   
 26  14  16  1   
 27  14  35  1   
 28  15  17  ar  
 29  15  18  ar  
 30  16  19  1   
 31  16  36  1   
 32  16  37  1   
 33  17  20  ar  
 34  17  38  1   
 35  18  21  ar  
 36  18  39  1   
 37  19  22  1   
 38  19  40  1   
 39  19  41  1   
 40  20  23  ar  
 41  20  42  1   
 42  21  23  ar  
 43  21  43  1   
 44  22  44  1   
 45  22  45  1   
 46  22  46  1   
 47  23  24  1   
 48  24  47  1   
 49  24  48  1   
 50  24  49  1   
@<TRIPOS>SUBSTRUCTURE
  1 ****   5 GROUP 4 **** **** 0

# MOE 2024.06 (io_trps.svl 2023.06)
