@<TRIPOS>MOLECULE
4-(4-Methyl-piperazin-1-yl)-3-[(pyridine-3-carbonyl)-amino]-benzoic acid methyl
49 51 1 0 0 
SMALL
USER_CHARGES


@<TRIPOS>ATOM
  1 O        0.6090     0.4480    -0.0610 O.2   1 <1>  -0.5700 
  2 C        1.0700    -0.6410     0.2200 C.2   1 <1>   0.6340 
  3 O        0.2360    -1.6070     0.6190 O.3   1 <1>  -0.4300 
  4 C        2.4830    -0.9470     0.1420 C.ar  1 <1>   0.0860 
  5 C       -1.1580    -1.3910     0.7240 C.3   1 <1>   0.0400 
  6 C        3.4140     0.0320    -0.2070 C.ar  1 <1>  -0.1500 
  7 C        2.9870    -2.2210     0.4040 C.ar  1 <1>  -0.1500 
  8 C        4.7750    -0.2100    -0.2970 C.ar  1 <1>   0.1170 
  9 C        4.3370    -2.4890     0.3170 C.ar  1 <1>  -0.1500 
 10 N        5.5740     0.8910    -0.6720 N.am  1 <1>  -0.5470 
 11 C        5.2600    -1.5110    -0.0320 C.ar  1 <1>   0.1000 
 12 C        6.6070     1.4880     0.0040 C.2   1 <1>   0.5440 
 13 N        6.6010    -1.9010    -0.0950 N.pl3 1 <1>  -0.8380 
 14 O        7.0540     0.9860     1.0180 O.2   1 <1>  -0.5700 
 15 C        7.1930     2.7070    -0.5060 C.ar  1 <1>   0.0860 
 16 C        7.2570    -2.4420     1.1420 C.3   1 <1>   0.2090 
 17 C        7.4440    -1.6920    -1.3150 C.3   1 <1>   0.2090 
 18 C        7.3470     2.9160    -1.8760 C.ar  1 <1>   0.1600 
 19 C        7.6480     3.7110     0.3380 C.ar  1 <1>  -0.1500 
 20 C        8.7620    -2.1010     1.2290 C.3   1 <1>   0.3430 
 21 C        8.8180    -1.0410    -1.0040 C.3   1 <1>   0.3430 
 22 N        7.8910     3.9780    -2.4410 N.ar  1 <1>  -0.6200 
 23 C        8.2120     4.8330    -0.2300 C.ar  1 <1>  -0.1500 
 24 N        9.0720    -0.8520     0.4660 N.4   1 <1>  -0.9590 
 25 C        8.3090     4.9180    -1.6080 C.ar  1 <1>   0.1600 
 26 C       10.4050    -0.2680     0.7770 C.3   1 <1>   0.2630 
 27 H       -1.6200    -2.3010     1.0610 H     1 <1>   0.0800 
 28 H       -1.5410    -1.1160    -0.2440 H     1 <1>   0.0800 
 29 H       -1.3340    -0.6000     1.4320 H     1 <1>   0.0800 
 30 H        3.0450     1.0230    -0.4070 H     1 <1>   0.1500 
 31 H        2.3110    -3.0140     0.6780 H     1 <1>   0.1500 
 32 H        4.6850    -3.4860     0.5150 H     1 <1>   0.1500 
 33 H        5.1180     1.4910    -1.3620 H     1 <1>   0.3700 
 34 H        7.1290    -3.5100     1.1820 H     1 <1>   0.0800 
 35 H        6.7610    -2.0240     2.0020 H     1 <1>   0.0800 
 36 H        6.9120    -1.0850    -2.0250 H     1 <1>   0.0800 
 37 H        7.6100    -2.6470    -1.7820 H     1 <1>   0.0800 
 38 H        7.0060     2.1520    -2.5540 H     1 <1>   0.1500 
 39 H        7.5580     3.6130     1.4080 H     1 <1>   0.1500 
 40 H        9.3330    -2.9210     0.8280 H     1 <1>   0.0800 
 41 H        9.0310    -1.9830     2.2660 H     1 <1>   0.0800 
 42 H        8.8610    -0.0850    -1.4970 H     1 <1>   0.0800 
 43 H        9.5930    -1.6570    -1.4300 H     1 <1>   0.0800 
 44 H        8.5730     5.6380     0.3850 H     1 <1>   0.1500 
 45 H        8.3200    -0.1910     0.7760 H     1 <1>   0.4500 
 46 H        8.7510     5.7990    -2.0450 H     1 <1>   0.1500 
 47 H       11.1900    -0.9420     0.4760 H     1 <1>   0.0800 
 48 H       10.4920    -0.0840     1.8360 H     1 <1>   0.0800 
 49 H       10.5310     0.6680     0.2580 H     1 <1>   0.0800 
@<TRIPOS>BOND
  1   1   2  2   
  2   2   3  1   
  3   2   4  1   
  4   3   5  1   
  5   4   6  ar  
  6   4   7  ar  
  7   5  27  1   
  8   5  28  1   
  9   5  29  1   
 10   6   8  ar  
 11   6  30  1   
 12   7   9  ar  
 13   7  31  1   
 14   8  10  1   
 15   8  11  ar  
 16   9  11  ar  
 17   9  32  1   
 18  10  12  am  
 19  10  33  1   
 20  11  13  1   
 21  12  14  2   
 22  12  15  1   
 23  13  16  1   
 24  13  17  1   
 25  15  18  ar  
 26  15  19  ar  
 27  16  20  1   
 28  16  34  1   
 29  16  35  1   
 30  17  21  1   
 31  17  36  1   
 32  17  37  1   
 33  18  22  ar  
 34  18  38  1   
 35  19  23  ar  
 36  19  39  1   
 37  20  24  1   
 38  20  40  1   
 39  20  41  1   
 40  21  24  1   
 41  21  42  1   
 42  21  43  1   
 43  22  25  ar  
 44  23  25  ar  
 45  23  44  1   
 46  24  26  1   
 47  24  45  1   
 48  25  46  1   
 49  26  47  1   
 50  26  48  1   
 51  26  49  1   
@<TRIPOS>SUBSTRUCTURE
  1 ****  10 GROUP 4 **** **** 0

# MOE 2024.06 (io_trps.svl 2023.06)
