@<TRIPOS>MOLECULE
6-[(E)-2-(3-Ethoxy-4-propoxy-phenyl)-vinyl]-5-nitro-1H-pyrimidine-2,4-dione
45 46 1 0 0 
SMALL
USER_CHARGES


@<TRIPOS>ATOM
  1 O        1.5760     0.6220     1.3330 O.2   1 <1>  -0.5200 
  2 N        1.6860     0.1100     0.2040 N.pl3 1 <1>   0.8360 
  3 O        1.2300     0.7010    -0.7900 O.2   1 <1>  -0.5200 
  4 C        2.4680    -1.0270     0.0360 C.2   1 <1>   0.2190 
  5 C        1.7800    -2.2720     0.0340 C.2   1 <1>   0.6160 
  6 C        3.8350    -0.9940    -0.1270 C.2   1 <1>   0.1090 
  7 O        0.5800    -2.3950     0.1810 O.2   1 <1>  -0.5700 
  8 N        2.5020    -3.4180    -0.1380 N.am  1 <1>  -0.4900 
  9 N        4.4820    -2.2100    -0.2890 N.am  1 <1>  -0.5390 
 10 C        4.6420     0.1950    -0.1360 C.2   1 <1>  -0.1500 
 11 C        3.8460    -3.4160    -0.2990 C.2   1 <1>   0.6900 
 12 C        5.9630     0.3110    -0.4190 C.2   1 <1>  -0.1780 
 13 O        4.4630    -4.4420    -0.4420 O.2   1 <1>  -0.5700 
 14 C        6.7630     1.5080    -0.4120 C.ar  1 <1>   0.0280 
 15 C        6.3510     2.6860     0.2070 C.ar  1 <1>  -0.1500 
 16 C        8.0080     1.5220    -1.0380 C.ar  1 <1>  -0.1500 
 17 C        7.1250     3.8320     0.1990 C.ar  1 <1>   0.0830 
 18 C        8.8030     2.6530    -1.0470 C.ar  1 <1>  -0.1500 
 19 O        6.5770     4.9040     0.8340 O.3   1 <1>  -0.3630 
 20 C        8.3820     3.8250    -0.4240 C.ar  1 <1>   0.0830 
 21 C        6.7020     6.1930     0.2810 C.3   1 <1>   0.1200 
 22 O        9.1600     4.9430    -0.3930 O.3   1 <1>  -0.3630 
 23 C        5.5390     7.0390     0.7880 C.3   1 <1>  -0.2400 
 24 C       10.5450     4.9510    -0.6730 C.3   1 <1>   0.1200 
 25 C       11.3100     4.2880     0.4780 C.3   1 <1>  -0.1600 
 26 C       12.8230     4.3290     0.2360 C.3   1 <1>  -0.2400 
 27 H        2.0160    -4.3110    -0.1400 H     1 <1>   0.3700 
 28 H        5.4970    -2.2650    -0.3920 H     1 <1>   0.3700 
 29 H        4.1060     1.0950     0.1100 H     1 <1>   0.1500 
 30 H        6.5240    -0.5640    -0.6930 H     1 <1>   0.1500 
 31 H        5.4090     2.7320     0.7160 H     1 <1>   0.1500 
 32 H        8.3610     0.6340    -1.5300 H     1 <1>   0.1500 
 33 H        9.7500     2.6000    -1.5470 H     1 <1>   0.1500 
 34 H        7.6420     6.6090     0.6000 H     1 <1>   0.0800 
 35 H        6.6790     6.1130    -0.7930 H     1 <1>   0.0800 
 36 H        5.5690     7.1010     1.8610 H     1 <1>   0.0800 
 37 H        4.6050     6.6040     0.4790 H     1 <1>   0.0800 
 38 H        5.6070     8.0320     0.3830 H     1 <1>   0.0800 
 39 H       10.7230     4.4700    -1.6180 H     1 <1>   0.0800 
 40 H       10.8400     5.9820    -0.7590 H     1 <1>   0.0800 
 41 H       11.0850     4.8080     1.3940 H     1 <1>   0.0800 
 42 H       11.0010     3.2630     0.5850 H     1 <1>   0.0800 
 43 H       13.1640     5.3460     0.1520 H     1 <1>   0.0800 
 44 H       13.0750     3.8020    -0.6670 H     1 <1>   0.0800 
 45 H       13.3380     3.8640     1.0580 H     1 <1>   0.0800 
@<TRIPOS>BOND
  1   1   2  2   
  2   2   3  2   
  3   2   4  1   
  4   4   5  1   
  5   4   6  2   
  6   5   7  2   
  7   5   8  am  
  8   6   9  1   
  9   6  10  1   
 10   8  11  am  
 11   8  27  1   
 12   9  11  am  
 13   9  28  1   
 14  10  12  2   
 15  10  29  1   
 16  11  13  2   
 17  12  14  1   
 18  12  30  1   
 19  14  15  ar  
 20  14  16  ar  
 21  15  17  ar  
 22  15  31  1   
 23  16  18  ar  
 24  16  32  1   
 25  17  19  1   
 26  17  20  ar  
 27  18  20  ar  
 28  18  33  1   
 29  19  21  1   
 30  20  22  1   
 31  21  23  1   
 32  21  34  1   
 33  21  35  1   
 34  22  24  1   
 35  23  36  1   
 36  23  37  1   
 37  23  38  1   
 38  24  25  1   
 39  24  39  1   
 40  24  40  1   
 41  25  26  1   
 42  25  41  1   
 43  25  42  1   
 44  26  43  1   
 45  26  44  1   
 46  26  45  1   
@<TRIPOS>SUBSTRUCTURE
  1 ****  12 GROUP 4 **** **** 0

# MOE 2024.06 (io_trps.svl 2023.06)
