@<TRIPOS>MOLECULE
2,5-Dioxo-1,2,3,4,5,6,7,8-octahydro-quinoline-4-carboxylic acid (3,5-dichloro-ph
37 39 1 0 0 
SMALL
USER_CHARGES


@<TRIPOS>ATOM
  1 CL       2.5220     3.4240     0.4080 Cl    1 <1>  -0.1770 
  2 C        0.8660     3.7510    -0.0300 C.ar  1 <1>   0.1770 
  3 C        0.5790     4.1690    -1.3150 C.ar  1 <1>  -0.1500 
  4 C       -0.1290     3.5830     0.9150 C.ar  1 <1>  -0.1500 
  5 C       -0.7410     4.4250    -1.6360 C.ar  1 <1>   0.1770 
  6 C       -1.4530     3.8370     0.5790 C.ar  1 <1>   0.1170 
  7 CL      -1.1340     4.9560    -3.2500 Cl    1 <1>  -0.1770 
  8 C       -1.7530     4.2680    -0.7080 C.ar  1 <1>  -0.1500 
  9 N       -2.4590     3.6630     1.5300 N.am  1 <1>  -0.5470 
 10 C       -3.4490     2.7310     1.6020 C.2   1 <1>   0.5690 
 11 O       -4.2200     2.7690     2.5290 O.2   1 <1>  -0.5700 
 12 C       -3.5700     1.5960     0.5750 C.3   1 <1>   0.1190 
 13 C       -4.9890     1.4750    -0.0160 C.2   1 <1>  -0.1240 
 14 C       -3.0780     0.2960     1.2560 C.3   1 <1>  -0.0990 
 15 C       -5.5350     0.2490    -0.2210 C.2   1 <1>  -0.0290 
 16 C       -5.6660     2.6840    -0.3720 C.2   1 <1>   0.4950 
 17 C       -3.6180    -0.9640     0.6250 C.2   1 <1>   0.5690 
 18 N       -4.8450    -0.9130     0.0500 N.am  1 <1>  -0.5390 
 19 C       -6.9360     0.0620    -0.7920 C.3   1 <1>  -0.0220 
 20 O       -5.1360     3.7660    -0.4540 O.2   1 <1>  -0.5700 
 21 C       -7.1400     2.5930    -0.7220 C.3   1 <1>  -0.0990 
 22 O       -2.9870    -1.9860     0.6640 O.2   1 <1>  -0.5700 
 23 C       -7.4370     1.3160    -1.5240 C.3   1 <1>  -0.1600 
 24 H        1.3580     4.2940    -2.0430 H     1 <1>   0.1500 
 25 H        0.1270     3.2550     1.9060 H     1 <1>   0.1500 
 26 H       -2.7690     4.4850    -0.9860 H     1 <1>   0.1500 
 27 H       -2.5110     4.3490     2.2850 H     1 <1>   0.3700 
 28 H       -2.9180     1.7950    -0.2540 H     1 <1>   0.0800 
 29 H       -3.4030     0.2800     2.2810 H     1 <1>   0.0800 
 30 H       -2.0040     0.2660     1.2540 H     1 <1>   0.0800 
 31 H       -5.2100    -1.8240    -0.2350 H     1 <1>   0.3700 
 32 H       -7.6050    -0.1750     0.0180 H     1 <1>   0.0800 
 33 H       -6.9450    -0.7650    -1.4810 H     1 <1>   0.0800 
 34 H       -7.4230     3.4560    -1.2980 H     1 <1>   0.0800 
 35 H       -7.7070     2.5990     0.1910 H     1 <1>   0.0800 
 36 H       -8.4930     1.2350    -1.7110 H     1 <1>   0.0800 
 37 H       -6.9370     1.3850    -2.4760 H     1 <1>   0.0800 
@<TRIPOS>BOND
  1   1   2  1   
  2   2   3  ar  
  3   2   4  ar  
  4   3   5  ar  
  5   3  24  1   
  6   4   6  ar  
  7   4  25  1   
  8   5   7  1   
  9   5   8  ar  
 10   6   8  ar  
 11   6   9  1   
 12   8  26  1   
 13   9  10  am  
 14   9  27  1   
 15  10  11  2   
 16  10  12  1   
 17  12  13  1   
 18  12  14  1   
 19  12  28  1   
 20  13  15  2   
 21  13  16  1   
 22  14  17  1   
 23  14  29  1   
 24  14  30  1   
 25  15  18  1   
 26  15  19  1   
 27  16  20  2   
 28  16  21  1   
 29  17  18  am  
 30  17  22  2   
 31  18  31  1   
 32  19  23  1   
 33  19  32  1   
 34  19  33  1   
 35  21  23  1   
 36  21  34  1   
 37  21  35  1   
 38  23  36  1   
 39  23  37  1   
@<TRIPOS>SUBSTRUCTURE
  1 ****  12 GROUP 4 **** **** 0

# MOE 2024.06 (io_trps.svl 2023.06)
