@<TRIPOS>MOLECULE
2-(2-Ethoxy-benzylamino)-5-propyl-4H-[1,2,4]triazolo[1,5-a]pyrimidin-7-one
45 47 1 0 0 
SMALL
USER_CHARGES


@<TRIPOS>ATOM
  1 O       -1.8460    -0.0440     1.8980 O.2   1 <1>  -0.5700 
  2 C       -1.9430    -1.2310     1.6160 C.2   1 <1>   0.5650 
  3 N       -3.1680    -1.9350     1.6760 N.pl3 1 <1>   0.5610 
  4 C       -0.7970    -1.9700     1.1920 C.2   1 <1>  -0.1360 
  5 N       -4.4280    -1.5620     2.0100 N.2   1 <1>  -0.7070 
  6 C       -3.2220    -3.2420     1.3150 C.2   1 <1>   0.2700 
  7 C       -0.8690    -3.2830     0.8470 C.2   1 <1>  -0.0380 
  8 C       -5.0820    -2.6480     1.8190 C.2   1 <1>   0.5990 
  9 N       -4.4040    -3.7220     1.3920 N.2   1 <1>  -0.5650 
 10 N       -2.0850    -3.9250     0.9090 N.pl3 1 <1>  -0.5840 
 11 C        0.3300    -4.0990     0.3920 C.3   1 <1>  -0.0220 
 12 N       -6.4240    -2.6850     2.0380 N.pl3 1 <1>  -0.8520 
 13 C        0.2240    -4.4620    -1.0960 C.3   1 <1>  -0.1600 
 14 C       -7.2180    -3.1330     0.8800 C.3   1 <1>   0.3530 
 15 C        1.4440    -5.2610    -1.5660 C.3   1 <1>  -0.2400 
 16 C       -8.2460    -2.0580     0.5720 C.ar  1 <1>  -0.1430 
 17 C       -7.9450    -1.0220    -0.3070 C.ar  1 <1>   0.0830 
 18 C       -9.4910    -2.0980     1.1820 C.ar  1 <1>  -0.1500 
 19 O       -6.7130    -1.0060    -0.8750 O.3   1 <1>  -0.3620 
 20 C       -8.8990    -0.0440    -0.5740 C.ar  1 <1>  -0.1500 
 21 C      -10.4350    -1.1220     0.9160 C.ar  1 <1>  -0.1500 
 22 C       -6.1190     0.2100    -1.2630 C.3   1 <1>   0.1200 
 23 C      -10.1390    -0.0950     0.0370 C.ar  1 <1>  -0.1500 
 24 C       -4.6460    -0.0570    -1.5560 C.3   1 <1>  -0.2400 
 25 H        0.1260    -1.4230     1.1600 H     1 <1>   0.1500 
 26 H       -2.2060    -4.9130     0.6580 H     1 <1>   0.4000 
 27 H        0.3970    -4.9940     0.9850 H     1 <1>   0.0800 
 28 H        1.2320    -3.5330     0.5530 H     1 <1>   0.0800 
 29 H       -6.6930    -1.7200     2.2340 H     1 <1>   0.4000 
 30 H        0.1450    -3.5600    -1.6780 H     1 <1>   0.0800 
 31 H       -0.6660    -5.0440    -1.2660 H     1 <1>   0.0800 
 32 H       -7.7080    -4.0580     1.1280 H     1 <1>   0.0800 
 33 H       -6.5930    -3.3090     0.0190 H     1 <1>   0.0800 
 34 H        2.3450    -4.6890    -1.4350 H     1 <1>   0.0800 
 35 H        1.3440    -5.5020    -2.6100 H     1 <1>   0.0800 
 36 H        1.5310    -6.1800    -1.0120 H     1 <1>   0.0800 
 37 H       -9.7270    -2.8900     1.8720 H     1 <1>   0.1500 
 38 H       -8.6910     0.7570    -1.2580 H     1 <1>   0.1500 
 39 H      -11.3990    -1.1610     1.3930 H     1 <1>   0.1500 
 40 H       -6.2240     0.9140    -0.4540 H     1 <1>   0.0800 
 41 H       -6.6230     0.5720    -2.1420 H     1 <1>   0.0800 
 42 H      -10.8740     0.6620    -0.1720 H     1 <1>   0.1500 
 43 H       -4.1560    -0.4070    -0.6670 H     1 <1>   0.0800 
 44 H       -4.1680     0.8520    -1.8730 H     1 <1>   0.0800 
 45 H       -4.5510    -0.7900    -2.3360 H     1 <1>   0.0800 
@<TRIPOS>BOND
  1   1   2  2   
  2   2   3  1   
  3   2   4  1   
  4   3   5  1   
  5   3   6  1   
  6   4   7  2   
  7   4  25  1   
  8   5   8  2   
  9   6   9  2   
 10   6  10  1   
 11   7  10  1   
 12   7  11  1   
 13   8   9  1   
 14   8  12  1   
 15  10  26  1   
 16  11  13  1   
 17  11  27  1   
 18  11  28  1   
 19  12  14  1   
 20  12  29  1   
 21  13  15  1   
 22  13  30  1   
 23  13  31  1   
 24  14  16  1   
 25  14  32  1   
 26  14  33  1   
 27  15  34  1   
 28  15  35  1   
 29  15  36  1   
 30  16  17  ar  
 31  16  18  ar  
 32  17  19  1   
 33  17  20  ar  
 34  18  21  ar  
 35  18  37  1   
 36  19  22  1   
 37  20  23  ar  
 38  20  38  1   
 39  21  23  ar  
 40  21  39  1   
 41  22  24  1   
 42  22  40  1   
 43  22  41  1   
 44  23  42  1   
 45  24  43  1   
 46  24  44  1   
 47  24  45  1   
@<TRIPOS>SUBSTRUCTURE
  1 ****   8 GROUP 4 **** **** 0

# MOE 2024.06 (io_trps.svl 2023.06)
