@<TRIPOS>MOLECULE
N-(3-Chloro-phenyl)-N-(1-methyl-2-oxo-2-pyrrolidin-1-yl-ethyl)-methanesulfonamid
40 41 1 0 0 
SMALL
USER_CHARGES


@<TRIPOS>ATOM
  1 CL       2.2730    -2.9780     4.2250 Cl    1 <1>  -0.1770 
  2 C        1.7140    -3.1550     2.5820 C.ar  1 <1>   0.1770 
  3 C        2.4240    -3.9560     1.7120 C.ar  1 <1>  -0.1500 
  4 C        0.5710    -2.4890     2.1820 C.ar  1 <1>  -0.1500 
  5 C        1.9950    -4.1010     0.3970 C.ar  1 <1>   0.1990 
  6 C        0.1340    -2.6290     0.8750 C.ar  1 <1>  -0.1500 
  7 N        2.6890    -4.8920    -0.5170 N.am  1 <1>  -0.6930 
  8 C        0.8440    -3.4290    -0.0040 C.ar  1 <1>  -0.1500 
  9 S        2.9300    -6.5820    -0.2560 S.o2  1 <1>   1.3330 
 10 C        3.6820    -4.2370    -1.4260 C.3   1 <1>   0.3370 
 11 O        3.4710    -7.1200    -1.4800 O.2   1 <1>  -0.6500 
 12 O        3.6530    -6.7300     0.9820 O.2   1 <1>  -0.6500 
 13 C        1.2640    -7.1790    -0.0710 C.3   1 <1>  -0.1350 
 14 C        4.3340    -2.9640    -0.8250 C.2   1 <1>   0.5690 
 15 C        3.0010    -3.9900    -2.7800 C.3   1 <1>  -0.2400 
 16 O        3.8980    -1.8750    -1.1320 O.2   1 <1>  -0.5700 
 17 N        5.3900    -3.0700     0.0460 N.am  1 <1>  -0.6600 
 18 C        6.0280    -4.3220     0.5180 C.3   1 <1>   0.1400 
 19 C        5.9530    -1.8950     0.7450 C.3   1 <1>   0.1400 
 20 C        7.1890    -3.8620     1.3910 C.3   1 <1>  -0.1600 
 21 C        6.7740    -2.4800     1.8870 C.3   1 <1>  -0.1600 
 22 H        3.3090    -4.4530     2.0580 H     1 <1>   0.1500 
 23 H        0.0380    -1.8700     2.8810 H     1 <1>   0.1500 
 24 H       -0.7510    -2.1140     0.5440 H     1 <1>   0.1500 
 25 H        0.5070    -3.5320    -1.0190 H     1 <1>   0.1500 
 26 H        4.4890    -4.9220    -1.6100 H     1 <1>   0.0800 
 27 H        0.7970    -6.7200     0.7780 H     1 <1>   0.0800 
 28 H        1.2690    -8.2410     0.0730 H     1 <1>   0.0800 
 29 H        0.6910    -6.9520    -0.9480 H     1 <1>   0.0800 
 30 H        2.2010    -3.2810    -2.6760 H     1 <1>   0.0800 
 31 H        2.6200    -4.9120    -3.1800 H     1 <1>   0.0800 
 32 H        3.7170    -3.5870    -3.4720 H     1 <1>   0.0800 
 33 H        6.3730    -4.9240    -0.3060 H     1 <1>   0.0800 
 34 H        5.3270    -4.8810     1.1110 H     1 <1>   0.0800 
 35 H        5.1690    -1.2500     1.1060 H     1 <1>   0.0800 
 36 H        6.5830    -1.3510     0.0620 H     1 <1>   0.0800 
 37 H        8.0740    -3.7820     0.7840 H     1 <1>   0.0800 
 38 H        7.3770    -4.5480     2.1980 H     1 <1>   0.0800 
 39 H        6.1440    -2.5760     2.7550 H     1 <1>   0.0800 
 40 H        7.6170    -1.8590     2.1330 H     1 <1>   0.0800 
@<TRIPOS>BOND
  1   1   2  1   
  2   2   3  ar  
  3   2   4  ar  
  4   3   5  ar  
  5   3  22  1   
  6   4   6  ar  
  7   4  23  1   
  8   5   7  1   
  9   5   8  ar  
 10   6   8  ar  
 11   6  24  1   
 12   7   9  am  
 13   7  10  1   
 14   8  25  1   
 15   9  11  2   
 16   9  12  2   
 17   9  13  1   
 18  10  14  1   
 19  10  15  1   
 20  10  26  1   
 21  13  27  1   
 22  13  28  1   
 23  13  29  1   
 24  14  16  2   
 25  14  17  am  
 26  15  30  1   
 27  15  31  1   
 28  15  32  1   
 29  17  18  1   
 30  17  19  1   
 31  18  20  1   
 32  18  33  1   
 33  18  34  1   
 34  19  21  1   
 35  19  35  1   
 36  19  36  1   
 37  20  21  1   
 38  20  37  1   
 39  20  38  1   
 40  21  39  1   
 41  21  40  1   
@<TRIPOS>SUBSTRUCTURE
  1 ****   5 GROUP 4 **** **** 0

# MOE 2024.06 (io_trps.svl 2023.06)
