@<TRIPOS>MOLECULE
Furan-2-carboxylic acid [(Z)-1-(azepane-1-carbonyl)-2-benzo[1,3]dioxol-5-yl-viny
50 53 1 0 0 
SMALL
USER_CHARGES


@<TRIPOS>ATOM
  1 O        0.2560    -0.3370    -0.8320 O.2   1 <1>  -0.5700 
  2 C       -0.4070    -1.3390    -1.0220 C.2   1 <1>   0.7150 
  3 N        0.1900    -2.5730    -1.0060 N.am  1 <1>  -0.5390 
  4 C       -1.8350    -1.2620    -1.2080 C.2   1 <1>   0.0550 
  5 C        1.5500    -2.9360    -1.0710 C.2   1 <1>   0.1230 
  6 O       -2.5720    -2.3670    -1.3110 O.3   1 <1>  -0.2800 
  7 C       -2.6630    -0.1840    -1.3040 C.2   1 <1>  -0.1500 
  8 C        2.5090    -2.0250    -1.6800 C.2   1 <1>   0.6160 
  9 C        1.9420    -4.1570    -0.6180 C.2   1 <1>  -0.1780 
 10 C       -3.8300    -2.0240    -1.4710 C.2   1 <1>  -0.0100 
 11 C       -3.9550    -0.6790    -1.4750 C.2   1 <1>  -0.1500 
 12 O        2.5590    -1.9550    -2.8970 O.2   1 <1>  -0.5700 
 13 N        3.3940    -1.2830    -0.9220 N.am  1 <1>  -0.6600 
 14 C        1.1800    -5.1790     0.0430 C.ar  1 <1>   0.0280 
 15 C        4.4220    -0.4440    -1.6000 C.3   1 <1>   0.1400 
 16 C        3.1680    -1.0490     0.5300 C.3   1 <1>   0.1400 
 17 C        0.2230    -4.8790     1.0200 C.ar  1 <1>  -0.1500 
 18 C        1.4040    -6.5260    -0.2750 C.ar  1 <1>  -0.1500 
 19 C        5.6590    -0.1400    -0.7420 C.3   1 <1>  -0.1600 
 20 C        4.0770    -1.9600     1.3610 C.3   1 <1>  -0.1600 
 21 C       -0.4730    -5.9100     1.6140 C.ar  1 <1>   0.0830 
 22 C        0.6990    -7.5530     0.3350 C.ar  1 <1>  -0.1500 
 23 C        6.2110    -1.3460     0.0360 C.3   1 <1>  -0.1600 
 24 C        5.5480    -1.5170     1.4110 C.3   1 <1>  -0.1600 
 25 O       -1.4220    -5.8350     2.5540 O.3   1 <1>  -0.3630 
 26 C       -0.2440    -7.2130     1.2840 C.ar  1 <1>   0.0830 
 27 C       -1.8200    -7.1750     2.8410 C.3   1 <1>   0.4000 
 28 O       -1.0370    -8.0160     1.9970 O.3   1 <1>  -0.3620 
 29 H       -0.4760    -3.3460    -1.0090 H     1 <1>   0.3700 
 30 H       -2.3840     0.8550    -1.2590 H     1 <1>   0.1500 
 31 H        2.9720    -4.4280    -0.7750 H     1 <1>   0.1500 
 32 H       -4.5750    -2.7940    -1.5740 H     1 <1>   0.1500 
 33 H       -4.8470    -0.0870    -1.5850 H     1 <1>   0.1500 
 34 H        4.7510    -0.9580    -2.4880 H     1 <1>   0.0800 
 35 H        3.9640     0.4790    -1.9140 H     1 <1>   0.0800 
 36 H        3.3440    -0.0150     0.7690 H     1 <1>   0.0800 
 37 H        2.1420    -1.2570     0.7750 H     1 <1>   0.0800 
 38 H        0.0310    -3.8670     1.3230 H     1 <1>   0.1500 
 39 H        2.1420    -6.7700    -1.0190 H     1 <1>   0.1500 
 40 H        6.4250     0.2140    -1.4090 H     1 <1>   0.0800 
 41 H        5.4440     0.6720    -0.0700 H     1 <1>   0.0800 
 42 H        3.7020    -1.9750     2.3680 H     1 <1>   0.0800 
 43 H        4.0140    -2.9650     0.9850 H     1 <1>   0.0800 
 44 H        0.8700    -8.5850     0.0880 H     1 <1>   0.1500 
 45 H        6.1070    -2.2460    -0.5460 H     1 <1>   0.0800 
 46 H        7.2640    -1.1870     0.1980 H     1 <1>   0.0800 
 47 H        5.6210    -0.5920     1.9570 H     1 <1>   0.0800 
 48 H        6.1010    -2.2560     1.9670 H     1 <1>   0.0800 
 49 H       -1.6110    -7.4010     3.8710 H     1 <1>   0.0800 
 50 H       -2.8630    -7.3000     2.6090 H     1 <1>   0.0800 
@<TRIPOS>BOND
  1   1   2  2   
  2   2   3  am  
  3   2   4  1   
  4   3   5  1   
  5   3  29  1   
  6   4   6  1   
  7   4   7  2   
  8   5   8  1   
  9   5   9  2   
 10   6  10  1   
 11   7  11  1   
 12   7  30  1   
 13   8  12  2   
 14   8  13  am  
 15   9  14  1   
 16   9  31  1   
 17  10  11  2   
 18  10  32  1   
 19  11  33  1   
 20  13  15  1   
 21  13  16  1   
 22  14  17  ar  
 23  14  18  ar  
 24  15  19  1   
 25  15  34  1   
 26  15  35  1   
 27  16  20  1   
 28  16  36  1   
 29  16  37  1   
 30  17  21  ar  
 31  17  38  1   
 32  18  22  ar  
 33  18  39  1   
 34  19  23  1   
 35  19  40  1   
 36  19  41  1   
 37  20  24  1   
 38  20  42  1   
 39  20  43  1   
 40  21  25  1   
 41  21  26  ar  
 42  22  26  ar  
 43  22  44  1   
 44  23  24  1   
 45  23  45  1   
 46  23  46  1   
 47  24  47  1   
 48  24  48  1   
 49  25  27  1   
 50  26  28  1   
 51  27  28  1   
 52  27  49  1   
 53  27  50  1   
@<TRIPOS>SUBSTRUCTURE
  1 ****   5 GROUP 4 **** **** 0

# MOE 2024.06 (io_trps.svl 2023.06)
