@<TRIPOS>MOLECULE
1-Cyclohexyl-5-oxo-pyrrolidine-3-carboxylic acid 1-methyl-2-oxo-2-p-tolyl-ethyl
53 55 1 0 0 
SMALL
USER_CHARGES


@<TRIPOS>ATOM
  1 O        0.4150     0.6680     1.4530 O.2   1 <1>  -0.5700 
  2 C        1.5220     0.6110     0.9770 C.2   1 <1>   0.5690 
  3 N        2.1050    -0.4850     0.4410 N.am  1 <1>  -0.6600 
  4 C        2.4420     1.7960     0.9130 C.3   1 <1>  -0.0990 
  5 C        1.4740    -1.8250     0.3780 C.3   1 <1>   0.2200 
  6 C        3.4630    -0.2050    -0.0630 C.3   1 <1>   0.1400 
  7 C        3.5510     1.3280    -0.0520 C.3   1 <1>  -0.0190 
  8 C        2.3600    -2.8750     1.0620 C.3   1 <1>  -0.1600 
  9 C        1.1790    -2.2070    -1.0780 C.3   1 <1>  -0.1600 
 10 C        4.9490     1.8220     0.2780 C.2   1 <1>   0.6590 
 11 C        1.7180    -4.2690     0.9830 C.3   1 <1>  -0.1600 
 12 C        0.5380    -3.6000    -1.1610 C.3   1 <1>  -0.1600 
 13 O        5.1540     2.7300     1.0410 O.2   1 <1>  -0.5700 
 14 O        5.9370     1.2070    -0.3510 O.3   1 <1>  -0.4300 
 15 C        1.4120    -4.6570    -0.4700 C.3   1 <1>  -0.1600 
 16 C        7.2670     1.6910    -0.2910 C.3   1 <1>   0.2610 
 17 C        7.4030     2.9900    -1.1050 C.2   1 <1>   0.4230 
 18 C        8.1690     0.5770    -0.8320 C.3   1 <1>  -0.2400 
 19 O        6.9930     2.9930    -2.2420 O.2   1 <1>  -0.5700 
 20 C        8.0580     4.1400    -0.5190 C.ar  1 <1>   0.0860 
 21 C        7.9890     4.4610     0.8400 C.ar  1 <1>  -0.1500 
 22 C        8.8060     4.9950    -1.3290 C.ar  1 <1>  -0.1500 
 23 C        8.6520     5.5580     1.3600 C.ar  1 <1>  -0.1500 
 24 C        9.4700     6.0930    -0.8150 C.ar  1 <1>  -0.1500 
 25 C        9.4000     6.3810     0.5360 C.ar  1 <1>  -0.1440 
 26 C       10.1280     7.5850     1.1060 C.3   1 <1>  -0.0970 
 27 H        2.8200     1.9830     1.9010 H     1 <1>   0.0800 
 28 H        1.9290     2.6650     0.5440 H     1 <1>   0.0800 
 29 H        0.5360    -1.7830     0.9080 H     1 <1>   0.0800 
 30 H        3.6030    -0.5930    -1.0570 H     1 <1>   0.0800 
 31 H        4.1860    -0.6400     0.6060 H     1 <1>   0.0800 
 32 H        3.3100     1.6740    -1.0400 H     1 <1>   0.0800 
 33 H        2.4980    -2.6050     2.0940 H     1 <1>   0.0800 
 34 H        3.3210    -2.9130     0.5830 H     1 <1>   0.0800 
 35 H        2.0900    -2.2130    -1.6480 H     1 <1>   0.0800 
 36 H        0.5100    -1.4810    -1.5050 H     1 <1>   0.0800 
 37 H        0.8030    -4.2720     1.5520 H     1 <1>   0.0800 
 38 H        2.3800    -4.9970     1.4200 H     1 <1>   0.0800 
 39 H        0.3910    -3.8700    -2.1930 H     1 <1>   0.0800 
 40 H       -0.4290    -3.5740    -0.6870 H     1 <1>   0.0800 
 41 H        0.9090    -5.6080    -0.4900 H     1 <1>   0.0800 
 42 H        2.3370    -4.7630    -1.0120 H     1 <1>   0.0800 
 43 H        7.5110     1.8550     0.7420 H     1 <1>   0.0800 
 44 H        7.9190     0.3660    -1.8570 H     1 <1>   0.0800 
 45 H        8.0560    -0.3140    -0.2420 H     1 <1>   0.0800 
 46 H        9.1970     0.8880    -0.7910 H     1 <1>   0.0800 
 47 H        7.4000     3.8640     1.5120 H     1 <1>   0.1500 
 48 H        8.8670     4.7900    -2.3850 H     1 <1>   0.1500 
 49 H        8.5800     5.7740     2.4120 H     1 <1>   0.1500 
 50 H       10.0410     6.7250    -1.4730 H     1 <1>   0.1500 
 51 H        9.5950     7.9810     1.9520 H     1 <1>   0.0800 
 52 H       10.2120     8.3600     0.3660 H     1 <1>   0.0800 
 53 H       11.1150     7.2970     1.4210 H     1 <1>   0.0800 
@<TRIPOS>BOND
  1   1   2  2   
  2   2   3  am  
  3   2   4  1   
  4   3   5  1   
  5   3   6  1   
  6   4   7  1   
  7   4  27  1   
  8   4  28  1   
  9   5   8  1   
 10   5   9  1   
 11   5  29  1   
 12   6   7  1   
 13   6  30  1   
 14   6  31  1   
 15   7  10  1   
 16   7  32  1   
 17   8  11  1   
 18   8  33  1   
 19   8  34  1   
 20   9  12  1   
 21   9  35  1   
 22   9  36  1   
 23  10  13  2   
 24  10  14  1   
 25  11  15  1   
 26  11  37  1   
 27  11  38  1   
 28  12  15  1   
 29  12  39  1   
 30  12  40  1   
 31  14  16  1   
 32  15  41  1   
 33  15  42  1   
 34  16  17  1   
 35  16  18  1   
 36  16  43  1   
 37  17  19  2   
 38  17  20  1   
 39  18  44  1   
 40  18  45  1   
 41  18  46  1   
 42  20  21  ar  
 43  20  22  ar  
 44  21  23  ar  
 45  21  47  1   
 46  22  24  ar  
 47  22  48  1   
 48  23  25  ar  
 49  23  49  1   
 50  24  25  ar  
 51  24  50  1   
 52  25  26  1   
 53  26  51  1   
 54  26  52  1   
 55  26  53  1   
@<TRIPOS>SUBSTRUCTURE
  1 ****  10 GROUP 4 **** **** 0

# MOE 2024.06 (io_trps.svl 2023.06)
