@<TRIPOS>MOLECULE
1-[4-(4-Chloro-benzenesulfonyl)-piperazin-1-yl]-3-(3,5-dimethyl-pyrazol-1-yl)-pr
50 52 1 0 0 
SMALL
USER_CHARGES


@<TRIPOS>ATOM
  1 CL      -2.5120     0.8370    -2.8650 Cl    1 <1>  -0.1770 
  2 C       -2.6200     2.1690    -1.7440 C.ar  1 <1>   0.1770 
  3 C       -3.5680     2.1380    -0.7400 C.ar  1 <1>  -0.1500 
  4 C       -1.7560     3.2390    -1.8740 C.ar  1 <1>  -0.1500 
  5 C       -3.6500     3.2000     0.1460 C.ar  1 <1>  -0.1500 
  6 C       -1.8490     4.2940    -0.9810 C.ar  1 <1>  -0.1500 
  7 C       -2.7950     4.2950     0.0410 C.ar  1 <1>  -0.0090 
  8 S       -2.9130     5.6950     1.1910 S.o2  1 <1>   1.4470 
  9 O       -4.0280     5.5090     2.0930 O.2   1 <1>  -0.6500 
 10 O       -1.6000     5.9820     1.7250 O.2   1 <1>  -0.6500 
 11 N       -3.3220     6.9880     0.1740 N.am  1 <1>  -0.8490 
 12 C       -3.0980     8.2830     0.8480 C.3   1 <1>   0.1960 
 13 C       -4.7140     6.8970    -0.3100 C.3   1 <1>   0.1960 
 14 C       -3.4250     9.4780    -0.0650 C.3   1 <1>   0.1400 
 15 C       -5.0580     8.0490    -1.2680 C.3   1 <1>   0.1400 
 16 N       -4.8150     9.3650    -0.6010 N.am  1 <1>  -0.6600 
 17 C       -5.7540    10.3360    -0.3630 C.2   1 <1>   0.5690 
 18 O       -5.4600    11.3860     0.1570 O.2   1 <1>  -0.5700 
 19 C       -7.2020    10.1070    -0.7470 C.3   1 <1>  -0.0990 
 20 C       -8.1520    11.1330    -0.1130 C.3   1 <1>   0.0960 
 21 N       -9.5480    10.8360    -0.4920 N.pl3 1 <1>   0.3140 
 22 N      -10.1120     9.6550    -0.1740 N.2   1 <1>  -0.7070 
 23 C      -10.4110    11.6220    -1.1780 C.2   1 <1>  -0.3320 
 24 C      -11.3120     9.7160    -0.6560 C.2   1 <1>   0.1080 
 25 C      -11.5590    10.9230    -1.2970 C.2   1 <1>  -0.1500 
 26 C      -10.1070    13.0170    -1.6980 C.3   1 <1>  -0.0600 
 27 C      -12.2990     8.5820    -0.5140 C.3   1 <1>  -0.0590 
 28 H       -4.2280     1.2930    -0.6560 H     1 <1>   0.1500 
 29 H       -1.0230     3.2420    -2.6610 H     1 <1>   0.1500 
 30 H       -4.3880     3.1760     0.9320 H     1 <1>   0.1500 
 31 H       -1.1780     5.1320    -1.0750 H     1 <1>   0.1500 
 32 H       -2.0660     8.3600     1.1480 H     1 <1>   0.0800 
 33 H       -3.7040     8.3430     1.7370 H     1 <1>   0.0800 
 34 H       -5.3990     6.9210     0.5220 H     1 <1>   0.0800 
 35 H       -4.8550     5.9640    -0.8290 H     1 <1>   0.0800 
 36 H       -2.7290     9.5010    -0.8860 H     1 <1>   0.0800 
 37 H       -3.3040    10.3900     0.4930 H     1 <1>   0.0800 
 38 H       -6.0770     7.9520    -1.5920 H     1 <1>   0.0800 
 39 H       -4.4310     7.9780    -2.1400 H     1 <1>   0.0800 
 40 H       -7.4950     9.1310    -0.4080 H     1 <1>   0.0800 
 41 H       -7.2870    10.1530    -1.8170 H     1 <1>   0.0800 
 42 H       -7.8960    12.1250    -0.4330 H     1 <1>   0.0800 
 43 H       -8.0790    11.0870     0.9580 H     1 <1>   0.0800 
 44 H      -12.4780    11.2090    -1.7760 H     1 <1>   0.1500 
 45 H       -9.8650    13.6730    -0.8810 H     1 <1>   0.0800 
 46 H      -10.9630    13.4140    -2.2130 H     1 <1>   0.0800 
 47 H       -9.2790    12.9870    -2.3840 H     1 <1>   0.0800 
 48 H      -13.2170     8.8180    -1.0170 H     1 <1>   0.0800 
 49 H      -12.4990     8.4120     0.5280 H     1 <1>   0.0800 
 50 H      -11.8800     7.6890    -0.9390 H     1 <1>   0.0800 
@<TRIPOS>BOND
  1   1   2  1   
  2   2   3  ar  
  3   2   4  ar  
  4   3   5  ar  
  5   3  28  1   
  6   4   6  ar  
  7   4  29  1   
  8   5   7  ar  
  9   5  30  1   
 10   6   7  ar  
 11   6  31  1   
 12   7   8  1   
 13   8   9  2   
 14   8  10  2   
 15   8  11  am  
 16  11  12  1   
 17  11  13  1   
 18  12  14  1   
 19  12  32  1   
 20  12  33  1   
 21  13  15  1   
 22  13  34  1   
 23  13  35  1   
 24  14  16  1   
 25  14  36  1   
 26  14  37  1   
 27  15  16  1   
 28  15  38  1   
 29  15  39  1   
 30  16  17  am  
 31  17  18  2   
 32  17  19  1   
 33  19  20  1   
 34  19  40  1   
 35  19  41  1   
 36  20  21  1   
 37  20  42  1   
 38  20  43  1   
 39  21  22  1   
 40  21  23  1   
 41  22  24  2   
 42  23  25  2   
 43  23  26  1   
 44  24  25  1   
 45  24  27  1   
 46  25  44  1   
 47  26  45  1   
 48  26  46  1   
 49  26  47  1   
 50  27  48  1   
 51  27  49  1   
 52  27  50  1   
@<TRIPOS>SUBSTRUCTURE
  1 ****  15 GROUP 4 **** **** 0

# MOE 2024.06 (io_trps.svl 2023.06)
