@<TRIPOS>MOLECULE
3-tert-Butyl-6-(2,3-dihydro-benzo[1,4]dioxin-6-yl)-[1,2,4]triazolo[3,4-b][1,3,4]
38 41 1 0 0 
SMALL
USER_CHARGES


@<TRIPOS>ATOM
  1 S        0.0220    -0.2450    -0.0840 S.3   1 <1>  -0.1970 
  2 C        0.8050     1.3130    -0.0100 C.2   1 <1>   0.2420 
  3 C       -1.5660     0.5760    -0.0420 C.2   1 <1>   0.5050 
  4 N        2.0170     1.7350     0.0090 N.2   1 <1>  -0.3380 
  5 N       -0.1220     2.2510     0.0360 N.pl3 1 <1>   0.5050 
  6 N       -1.4620     1.8570     0.0180 N.2   1 <1>  -0.6520 
  7 C       -2.7720    -0.2290    -0.0800 C.ar  1 <1>   0.0860 
  8 N        1.8990     3.0740     0.0730 N.2   1 <1>  -0.3380 
  9 C        0.6290     3.3690     0.0890 C.2   1 <1>   0.0060 
 10 C       -4.0220     0.3980    -0.0760 C.ar  1 <1>  -0.1500 
 11 C       -2.7630    -1.6300    -0.1180 C.ar  1 <1>  -0.1500 
 12 C        0.0290     4.7800     0.1570 C.3   1 <1>   0.1800 
 13 C       -5.1970    -0.3260    -0.1090 C.ar  1 <1>   0.0830 
 14 C       -3.9350    -2.3650    -0.1580 C.ar  1 <1>  -0.1500 
 15 C       -0.8320     4.9270     1.4210 C.3   1 <1>  -0.2400 
 16 C       -0.8340     5.0480    -1.0850 C.3   1 <1>  -0.2400 
 17 C        1.1390     5.8440     0.2080 C.3   1 <1>  -0.2400 
 18 O       -6.3790     0.3390    -0.0860 O.3   1 <1>  -0.3630 
 19 C       -5.1570    -1.7190    -0.1610 C.ar  1 <1>   0.0830 
 20 C       -7.5370    -0.4200     0.2110 C.3   1 <1>   0.1200 
 21 O       -6.2930    -2.4550    -0.2170 O.3   1 <1>  -0.3630 
 22 C       -7.4930    -1.7690    -0.5210 C.3   1 <1>   0.1200 
 23 H       -4.0840     1.4710    -0.0430 H     1 <1>   0.1500 
 24 H       -1.8340    -2.1720    -0.1190 H     1 <1>   0.1500 
 25 H       -3.9110    -3.4400    -0.1900 H     1 <1>   0.1500 
 26 H       -0.2430     4.7170     2.2960 H     1 <1>   0.0800 
 27 H       -1.6640     4.2470     1.4010 H     1 <1>   0.0800 
 28 H       -1.2190     5.9270     1.5010 H     1 <1>   0.0800 
 29 H       -1.6670     4.3690    -1.1280 H     1 <1>   0.0800 
 30 H       -0.2470     4.9230    -1.9770 H     1 <1>   0.0800 
 31 H       -1.2210     6.0510    -1.0680 H     1 <1>   0.0800 
 32 H        1.7620     5.6930     1.0720 H     1 <1>   0.0800 
 33 H        0.7220     6.8340     0.2560 H     1 <1>   0.0800 
 34 H        1.7600     5.7770    -0.6680 H     1 <1>   0.0800 
 35 H       -8.3950     0.1520    -0.0920 H     1 <1>   0.0800 
 36 H       -7.5730    -0.5730     1.2750 H     1 <1>   0.0800 
 37 H       -7.5320    -1.6180    -1.5860 H     1 <1>   0.0800 
 38 H       -8.3160    -2.3930    -0.2240 H     1 <1>   0.0800 
@<TRIPOS>BOND
  1   1   2  1   
  2   1   3  1   
  3   2   4  2   
  4   2   5  1   
  5   3   6  2   
  6   3   7  1   
  7   4   8  1   
  8   5   6  1   
  9   5   9  1   
 10   7  10  ar  
 11   7  11  ar  
 12   8   9  2   
 13   9  12  1   
 14  10  13  ar  
 15  10  23  1   
 16  11  14  ar  
 17  11  24  1   
 18  12  15  1   
 19  12  16  1   
 20  12  17  1   
 21  13  18  1   
 22  13  19  ar  
 23  14  19  ar  
 24  14  25  1   
 25  15  26  1   
 26  15  27  1   
 27  15  28  1   
 28  16  29  1   
 29  16  30  1   
 30  16  31  1   
 31  17  32  1   
 32  17  33  1   
 33  17  34  1   
 34  18  20  1   
 35  19  21  1   
 36  20  22  1   
 37  20  35  1   
 38  20  36  1   
 39  21  22  1   
 40  22  37  1   
 41  22  38  1   
@<TRIPOS>SUBSTRUCTURE
  1 ****   3 GROUP 4 **** **** 0

# MOE 2024.06 (io_trps.svl 2023.06)
