@<TRIPOS>MOLECULE
3-Butyrylamino-7,7-dimethyl-7,8-dihydro-5H-pyrano[4,3-b]thieno[3,2-e]pyridine-2-
57 59 1 0 0 
SMALL
USER_CHARGES


@<TRIPOS>ATOM
  1 S        0.1680    -0.9740    -0.4990 S.3   1 <1>  -0.0800 
  2 C       -1.1840     0.1130    -0.2280 C.ar  1 <1>   0.2970 
  3 C        1.3570     0.3580    -0.5310 C.2   1 <1>  -0.0450 
  4 N       -2.4230    -0.3270    -0.1060 N.ar  1 <1>  -0.5670 
  5 C       -0.7250     1.4200    -0.1680 C.ar  1 <1>   0.0000 
  6 C        0.6980     1.5440    -0.3520 C.2   1 <1>   0.0630 
  7 C        2.7230    -0.0160    -0.7510 C.2   1 <1>   0.7150 
  8 C       -3.3050     0.6350     0.1070 C.ar  1 <1>   0.1670 
  9 C       -1.6790     2.4010     0.0620 C.ar  1 <1>  -0.1500 
 10 N        1.2490     2.8300    -0.3920 N.am  1 <1>  -0.4930 
 11 O        3.0090    -1.0200    -1.3820 O.2   1 <1>  -0.5700 
 12 N        3.7390     0.7410    -0.2530 N.am  1 <1>  -0.7300 
 13 C       -2.9910     1.9920     0.1980 C.ar  1 <1>  -0.1430 
 14 C       -4.7430     0.1910     0.2780 C.3   1 <1>  -0.0170 
 15 C        2.1760     3.3970     0.4340 C.2   1 <1>   0.5690 
 16 C        5.1710     0.4390    -0.3270 C.3   1 <1>   0.2200 
 17 C       -4.0820     3.0300     0.4340 C.3   1 <1>   0.2640 
 18 C       -5.7390     1.3410     0.0650 C.3   1 <1>   0.2800 
 19 O        2.6890     2.8000     1.3480 O.2   1 <1>  -0.5700 
 20 C        2.5680     4.8400     0.1820 C.3   1 <1>  -0.0990 
 21 C        5.6160    -0.0840     1.0450 C.3   1 <1>  -0.1600 
 22 C        5.8860     1.7260    -0.7340 C.3   1 <1>  -0.2400 
 23 O       -5.3020     2.4480     0.7920 O.3   1 <1>  -0.5600 
 24 C       -5.9060     1.7160    -1.4170 C.3   1 <1>  -0.2400 
 25 C       -7.1060     0.9810     0.6480 C.3   1 <1>  -0.2400 
 26 C        3.4290     4.9940    -1.0830 C.3   1 <1>  -0.1600 
 27 C        7.0820    -0.5370     1.0800 C.3   1 <1>  -0.2400 
 28 C        3.8120     6.4580    -1.3180 C.3   1 <1>  -0.2400 
 29 H       -1.4010     3.4370     0.1350 H     1 <1>   0.1500 
 30 H        0.8220     3.4660    -1.0640 H     1 <1>   0.3700 
 31 H        3.4850     1.4510     0.4460 H     1 <1>   0.3700 
 32 H       -4.8520    -0.2040     1.2710 H     1 <1>   0.0800 
 33 H       -4.9600    -0.6040    -0.4120 H     1 <1>   0.0800 
 34 H        5.3430    -0.3190    -1.0750 H     1 <1>   0.0800 
 35 H       -4.2370     3.6200    -0.4520 H     1 <1>   0.0800 
 36 H       -3.7990     3.6870     1.2370 H     1 <1>   0.0800 
 37 H        3.1210     5.1950     1.0340 H     1 <1>   0.0800 
 38 H        1.6780     5.4350     0.0990 H     1 <1>   0.0800 
 39 H        4.9990    -0.9280     1.3000 H     1 <1>   0.0800 
 40 H        5.4620     0.6780     1.7900 H     1 <1>   0.0800 
 41 H        5.7690     2.4790     0.0240 H     1 <1>   0.0800 
 42 H        5.4830     2.0880    -1.6630 H     1 <1>   0.0800 
 43 H        6.9340     1.5410    -0.8780 H     1 <1>   0.0800 
 44 H       -4.9580     1.8900    -1.8920 H     1 <1>   0.0800 
 45 H       -6.5220     2.5920    -1.5120 H     1 <1>   0.0800 
 46 H       -6.3840     0.9100    -1.9430 H     1 <1>   0.0800 
 47 H       -7.0200     0.7710     1.6990 H     1 <1>   0.0800 
 48 H       -7.5050     0.1110     0.1570 H     1 <1>   0.0800 
 49 H       -7.7940     1.7950     0.5120 H     1 <1>   0.0800 
 50 H        2.8950     4.6270    -1.9420 H     1 <1>   0.0800 
 51 H        4.3260     4.4080    -0.9760 H     1 <1>   0.0800 
 52 H        7.2650    -1.2750     0.3180 H     1 <1>   0.0800 
 53 H        7.3050    -0.9750     2.0370 H     1 <1>   0.0800 
 54 H        7.7470     0.2940     0.9300 H     1 <1>   0.0800 
 55 H        2.9340     7.0660    -1.4510 H     1 <1>   0.0800 
 56 H        4.4200     6.5420    -2.2020 H     1 <1>   0.0800 
 57 H        4.3750     6.8400    -0.4830 H     1 <1>   0.0800 
@<TRIPOS>BOND
  1   1   2  1   
  2   1   3  1   
  3   2   4  ar  
  4   2   5  ar  
  5   3   6  2   
  6   3   7  1   
  7   4   8  ar  
  8   5   6  1   
  9   5   9  ar  
 10   6  10  1   
 11   7  11  2   
 12   7  12  am  
 13   8  13  ar  
 14   8  14  1   
 15   9  13  ar  
 16   9  29  1   
 17  10  15  am  
 18  10  30  1   
 19  12  16  1   
 20  12  31  1   
 21  13  17  1   
 22  14  18  1   
 23  14  32  1   
 24  14  33  1   
 25  15  19  2   
 26  15  20  1   
 27  16  21  1   
 28  16  22  1   
 29  16  34  1   
 30  17  23  1   
 31  17  35  1   
 32  17  36  1   
 33  18  23  1   
 34  18  24  1   
 35  18  25  1   
 36  20  26  1   
 37  20  37  1   
 38  20  38  1   
 39  21  27  1   
 40  21  39  1   
 41  21  40  1   
 42  22  41  1   
 43  22  42  1   
 44  22  43  1   
 45  24  44  1   
 46  24  45  1   
 47  24  46  1   
 48  25  47  1   
 49  25  48  1   
 50  25  49  1   
 51  26  28  1   
 52  26  50  1   
 53  26  51  1   
 54  27  52  1   
 55  27  53  1   
 56  27  54  1   
 57  28  55  1   
 58  28  56  1   
 59  28  57  1   
@<TRIPOS>SUBSTRUCTURE
  1 ****   6 GROUP 4 **** **** 0

# MOE 2024.06 (io_trps.svl 2023.06)
