@<TRIPOS>MOLECULE
8-(2-Hydroxy-ethyl)-1,3,6,7-tetramethyl-1H,8H-imidazo[2,1-f]purine-2,4-dione
39 41 1 0 0 
SMALL
USER_CHARGES


@<TRIPOS>ATOM
  1 O        0.9900    -0.3020     0.9040 O.2   1 <1>  -0.5760 
  2 C        1.9120     0.4700     0.7360 C.2   1 <1>   0.6850 
  3 N        1.6580     1.8020     0.4220 N.am  1 <1>  -0.4270 
  4 N        3.2200     0.0200     0.8570 N.am  1 <1>  -0.4430 
  5 C        2.6940     2.7110     0.2380 C.2   1 <1>   0.6980 
  6 C        0.2380     2.2620     0.3100 C.3   1 <1>   0.0500 
  7 C        4.2420     0.9220     0.6450 C.2   1 <1>   0.4190 
  8 C        3.5100    -1.4030     1.2030 C.3   1 <1>   0.0500 
  9 O        2.4580     3.8830    -0.0040 O.2   1 <1>  -0.5760 
 10 C        4.0330     2.2270     0.3400 C.2   1 <1>   0.2680 
 11 N        5.5820     0.6810     0.6800 N.pl3 1 <1>  -0.7050 
 12 N        5.3060     2.8000     0.1730 N.pl3 1 <1>  -0.6350 
 13 C        6.1850     1.8300     0.3800 C.cat 1 <1>   1.0680 
 14 C        6.0330     3.9280    -0.1440 C.2   1 <1>   0.2320 
 15 N        7.4460     2.2480     0.2260 N.pl3 1 <1>  -0.5730 
 16 C        7.3460     3.5910    -0.1100 C.2   1 <1>   0.1550 
 17 C        5.3300     5.2360    -0.4490 C.3   1 <1>  -0.1120 
 18 C        8.6840     1.4480     0.4730 C.3   1 <1>   0.1580 
 19 C        8.5740     4.4450    -0.3740 C.3   1 <1>  -0.1120 
 20 C        8.8290     0.2390    -0.4680 C.3   1 <1>   0.1100 
 21 O        7.7900    -0.6730    -0.2800 O.3   1 <1>  -0.6850 
 22 H       -0.3700     1.4910    -0.1320 H     1 <1>   0.0700 
 23 H        0.1640     3.1410    -0.3070 H     1 <1>   0.0700 
 24 H       -0.1450     2.4880     1.2900 H     1 <1>   0.0700 
 25 H        2.6980    -1.8240     1.7720 H     1 <1>   0.0700 
 26 H        4.4040    -1.4720     1.7970 H     1 <1>   0.0700 
 27 H        3.6330    -1.9760     0.3010 H     1 <1>   0.0700 
 28 H        6.1190    -0.1940     0.6430 H     1 <1>   0.4430 
 29 H        4.6770     5.1140    -1.2950 H     1 <1>   0.0700 
 30 H        6.0360     6.0140    -0.6720 H     1 <1>   0.0700 
 31 H        4.7390     5.5410     0.3960 H     1 <1>   0.0700 
 32 H        8.6880     1.1040     1.4930 H     1 <1>   0.0700 
 33 H        9.5470     2.0770     0.3470 H     1 <1>   0.0700 
 34 H        9.1920     4.4890     0.5050 H     1 <1>   0.0700 
 35 H        8.2950     5.4490    -0.6400 H     1 <1>   0.0700 
 36 H        9.1470     4.0290    -1.1840 H     1 <1>   0.0700 
 37 H        9.7550    -0.2710    -0.2620 H     1 <1>   0.0700 
 38 H        8.8280     0.5550    -1.4980 H     1 <1>   0.0700 
 39 H        7.9780    -1.4900    -0.7960 H     1 <1>   0.3920 
@<TRIPOS>BOND
  1   1   2  2   
  2   2   3  am  
  3   2   4  am  
  4   3   5  am  
  5   3   6  1   
  6   4   7  1   
  7   4   8  1   
  8   5   9  2   
  9   5  10  1   
 10   6  22  1   
 11   6  23  1   
 12   6  24  1   
 13   7  10  2   
 14   7  11  1   
 15   8  25  1   
 16   8  26  1   
 17   8  27  1   
 18  10  12  1   
 19  11  13  ar  
 20  11  28  1   
 21  12  13  ar  
 22  12  14  1   
 23  13  15  ar  
 24  14  16  2   
 25  14  17  1   
 26  15  16  1   
 27  15  18  1   
 28  16  19  1   
 29  17  29  1   
 30  17  30  1   
 31  17  31  1   
 32  18  20  1   
 33  18  32  1   
 34  18  33  1   
 35  19  34  1   
 36  19  35  1   
 37  19  36  1   
 38  20  21  1   
 39  20  37  1   
 40  20  38  1   
 41  21  39  1   
@<TRIPOS>SUBSTRUCTURE
  1 ****  10 GROUP 4 **** **** 0

# MOE 2024.06 (io_trps.svl 2023.06)
