@<TRIPOS>MOLECULE
6-Azepan-1-ylmethyl-4-benzo[1,3]dioxol-5-yl-2-oxo-1,2,3,4-tetrahydro-pyrimidine-
57 60 1 0 0 
SMALL
USER_CHARGES


@<TRIPOS>ATOM
  1 O       -0.2930     0.8330    -0.5600 O.2   1 <1>  -0.5700 
  2 C       -1.3980     1.1760    -0.2200 C.2   1 <1>   0.6900 
  3 N       -2.4780     0.7290    -0.9040 N.am  1 <1>  -0.5390 
  4 N       -1.5880     2.0030     0.8170 N.am  1 <1>  -0.7300 
  5 C       -3.7920     1.0380    -0.5720 C.2   1 <1>  -0.0290 
  6 C       -2.8790     2.6520     1.1110 C.3   1 <1>   0.5020 
  7 C       -4.0500     1.9340     0.4260 C.2   1 <1>  -0.1240 
  8 C       -4.8400     0.2750    -1.3860 C.3   1 <1>   0.4810 
  9 C       -2.8000     4.1080     0.6540 C.ar  1 <1>  -0.1440 
 10 C       -5.3150     2.3300     0.9700 C.2   1 <1>   0.7060 
 11 N       -4.8380    -1.1460    -0.9410 N.4   1 <1>  -0.9590 
 12 C       -2.4300     4.4270    -0.6520 C.ar  1 <1>  -0.1500 
 13 C       -3.1130     5.1340     1.5490 C.ar  1 <1>  -0.1500 
 14 O       -5.4330     2.9990     1.9750 O.2   1 <1>  -0.5700 
 15 O       -6.4270     1.8910     0.3720 O.3   1 <1>  -0.4300 
 16 C       -5.4680    -2.0480    -1.9380 C.3   1 <1>   0.3430 
 17 C       -5.4840    -1.3040     0.3860 C.3   1 <1>   0.3430 
 18 C       -2.3840     5.7560    -1.0170 C.ar  1 <1>   0.0830 
 19 C       -3.0580     6.4670     1.1640 C.ar  1 <1>  -0.1500 
 20 C       -7.7090     2.2690     0.8330 C.3   1 <1>   0.1200 
 21 C       -4.9060    -3.4680    -1.8210 C.3   1 <1>  -0.1600 
 22 C       -4.6310    -2.2100     1.2740 C.3   1 <1>  -0.1600 
 23 O       -2.0610     6.2770    -2.2050 O.3   1 <1>  -0.3620 
 24 C       -2.6870     6.7500    -0.1340 C.ar  1 <1>   0.0830 
 25 C       -8.7490     1.5660    -0.0330 C.3   1 <1>  -0.2400 
 26 C       -4.9890    -4.1230    -0.4280 C.3   1 <1>  -0.1600 
 27 C       -4.0550    -3.4710     0.6040 C.3   1 <1>  -0.1600 
 28 C       -2.1540     7.6940    -2.0670 C.3   1 <1>   0.4000 
 29 O       -2.5670     7.9430    -0.7250 O.3   1 <1>  -0.3620 
 30 H       -2.1980     0.1780    -1.7180 H     1 <1>   0.3700 
 31 H       -0.7590     2.4730     1.1790 H     1 <1>   0.3700 
 32 H       -3.0130     2.6180     2.1800 H     1 <1>   0.0800 
 33 H       -4.5700     0.3330    -2.4280 H     1 <1>   0.0800 
 34 H       -5.8240     0.6950    -1.2840 H     1 <1>   0.0800 
 35 H       -3.8560    -1.4280    -0.8200 H     1 <1>   0.4500 
 36 H       -2.1760     3.6760    -1.3780 H     1 <1>   0.1500 
 37 H       -3.4100     4.9020     2.5590 H     1 <1>   0.1500 
 38 H       -5.2720    -1.6880    -2.9360 H     1 <1>   0.0800 
 39 H       -6.5360    -2.0660    -1.7950 H     1 <1>   0.0800 
 40 H       -6.4640    -1.7380     0.2660 H     1 <1>   0.0800 
 41 H       -5.6010    -0.3500     0.8730 H     1 <1>   0.0800 
 42 H       -3.2970     7.2640     1.8450 H     1 <1>   0.1500 
 43 H       -7.8070     1.9790     1.8660 H     1 <1>   0.0800 
 44 H       -7.7990     3.3400     0.7530 H     1 <1>   0.0800 
 45 H       -3.8840    -3.4730    -2.1590 H     1 <1>   0.0800 
 46 H       -5.4540    -4.0870    -2.5100 H     1 <1>   0.0800 
 47 H       -5.2480    -2.5150     2.1020 H     1 <1>   0.0800 
 48 H       -3.8230    -1.6350     1.6930 H     1 <1>   0.0800 
 49 H       -9.7340     1.8460     0.2950 H     1 <1>   0.0800 
 50 H       -8.6560     0.4990     0.0550 H     1 <1>   0.0800 
 51 H       -8.6410     1.8620    -1.0620 H     1 <1>   0.0800 
 52 H       -4.6860    -5.1520    -0.5380 H     1 <1>   0.0800 
 53 H       -6.0050    -4.1380    -0.0690 H     1 <1>   0.0800 
 54 H       -3.8480    -4.1900     1.3800 H     1 <1>   0.0800 
 55 H       -3.1090    -3.2460     0.1410 H     1 <1>   0.0800 
 56 H       -2.8920     8.0760    -2.7490 H     1 <1>   0.0800 
 57 H       -1.1880     8.1370    -2.2350 H     1 <1>   0.0800 
@<TRIPOS>BOND
  1   1   2  2   
  2   2   3  am  
  3   2   4  am  
  4   3   5  1   
  5   3  30  1   
  6   4   6  1   
  7   4  31  1   
  8   5   7  2   
  9   5   8  1   
 10   6   7  1   
 11   6   9  1   
 12   6  32  1   
 13   7  10  1   
 14   8  11  1   
 15   8  33  1   
 16   8  34  1   
 17   9  12  ar  
 18   9  13  ar  
 19  10  14  2   
 20  10  15  1   
 21  11  16  1   
 22  11  17  1   
 23  11  35  1   
 24  12  18  ar  
 25  12  36  1   
 26  13  19  ar  
 27  13  37  1   
 28  15  20  1   
 29  16  21  1   
 30  16  38  1   
 31  16  39  1   
 32  17  22  1   
 33  17  40  1   
 34  17  41  1   
 35  18  23  1   
 36  18  24  ar  
 37  19  24  ar  
 38  19  42  1   
 39  20  25  1   
 40  20  43  1   
 41  20  44  1   
 42  21  26  1   
 43  21  45  1   
 44  21  46  1   
 45  22  27  1   
 46  22  47  1   
 47  22  48  1   
 48  23  28  1   
 49  24  29  1   
 50  25  49  1   
 51  25  50  1   
 52  25  51  1   
 53  26  27  1   
 54  26  52  1   
 55  26  53  1   
 56  27  54  1   
 57  27  55  1   
 58  28  29  1   
 59  28  56  1   
 60  28  57  1   
@<TRIPOS>SUBSTRUCTURE
  1 ****   7 GROUP 4 **** **** 0

# MOE 2024.06 (io_trps.svl 2023.06)
