@<TRIPOS>MOLECULE
1-(5-Methyl-isoxazol-3-yl)-3-(1-phenyl-ethyl)-pyrrolidine-2,5-dione
37 39 1 0 0 
SMALL
USER_CHARGES


@<TRIPOS>ATOM
  1 O       -0.2130    -0.0620    -0.6470 O.2   1 <1>  -0.5700 
  2 C       -1.3460    -0.4730    -0.6380 C.2   1 <1>   0.5690 
  3 N       -1.7070    -1.7830    -0.5500 N.am  1 <1>  -0.1830 
  4 C       -2.5640     0.4330    -0.7540 C.3   1 <1>  -0.0190 
  5 C       -0.7930    -2.8500    -0.5660 C.2   1 <1>   0.3520 
  6 C       -3.0620    -1.9120    -0.5570 C.2   1 <1>   0.5690 
  7 C       -2.6660     1.5010     0.3630 C.3   1 <1>   0.0640 
  8 C       -3.7360    -0.5730    -0.7310 C.3   1 <1>  -0.0990 
  9 N       -0.8230    -3.8270    -1.4070 N.2   1 <1>  -0.4100 
 10 C        0.2860    -2.9900     0.3080 C.2   1 <1>  -0.1500 
 11 O       -3.6970    -2.9220    -0.4010 O.2   1 <1>  -0.5700 
 12 C       -4.0300     2.1930     0.3310 C.ar  1 <1>  -0.1440 
 13 C       -1.5670     2.5720     0.2820 C.3   1 <1>  -0.2400 
 14 O        0.1890    -4.5960    -1.1040 O.3   1 <1>  -0.0190 
 15 C        0.8700    -4.1280    -0.0910 C.2   1 <1>  -0.0400 
 16 C       -4.4510     2.8980    -0.7880 C.ar  1 <1>  -0.1500 
 17 C       -4.8700     2.1190     1.4330 C.ar  1 <1>  -0.1500 
 18 C        2.0880    -4.8740     0.4090 C.3   1 <1>  -0.0600 
 19 C       -5.6920     3.5100    -0.8090 C.ar  1 <1>  -0.1500 
 20 C       -6.1120     2.7300     1.4140 C.ar  1 <1>  -0.1500 
 21 C       -6.5250     3.4250     0.2920 C.ar  1 <1>  -0.1500 
 22 H       -2.5280     0.9160    -1.7140 H     1 <1>   0.0800 
 23 H       -2.5600     1.0030     1.3120 H     1 <1>   0.0800 
 24 H       -4.2820    -0.5580    -1.6560 H     1 <1>   0.0800 
 25 H       -4.4160    -0.4160     0.0870 H     1 <1>   0.0800 
 26 H        0.5520    -2.3140     1.0980 H     1 <1>   0.1500 
 27 H       -1.5420     3.0260    -0.6930 H     1 <1>   0.0800 
 28 H       -0.6000     2.1520     0.4890 H     1 <1>   0.0800 
 29 H       -1.7540     3.3420     1.0100 H     1 <1>   0.0800 
 30 H       -3.8160     2.9800    -1.6530 H     1 <1>   0.1500 
 31 H       -4.5670     1.5850     2.3170 H     1 <1>   0.1500 
 32 H        2.5280    -4.3540     1.2400 H     1 <1>   0.0800 
 33 H        2.8150    -4.9530    -0.3790 H     1 <1>   0.0800 
 34 H        1.8060    -5.8630     0.7230 H     1 <1>   0.0800 
 35 H       -6.0100     4.0540    -1.6810 H     1 <1>   0.1500 
 36 H       -6.7570     2.6660     2.2730 H     1 <1>   0.1500 
 37 H       -7.4900     3.9000     0.2770 H     1 <1>   0.1500 
@<TRIPOS>BOND
  1   1   2  2   
  2   2   3  am  
  3   2   4  1   
  4   3   5  1   
  5   3   6  am  
  6   4   7  1   
  7   4   8  1   
  8   4  22  1   
  9   5   9  2   
 10   5  10  1   
 11   6   8  1   
 12   6  11  2   
 13   7  12  1   
 14   7  13  1   
 15   7  23  1   
 16   8  24  1   
 17   8  25  1   
 18   9  14  1   
 19  10  15  2   
 20  10  26  1   
 21  12  16  ar  
 22  12  17  ar  
 23  13  27  1   
 24  13  28  1   
 25  13  29  1   
 26  14  15  1   
 27  15  18  1   
 28  16  19  ar  
 29  16  30  1   
 30  17  20  ar  
 31  17  31  1   
 32  18  32  1   
 33  18  33  1   
 34  18  34  1   
 35  19  21  ar  
 36  19  35  1   
 37  20  21  ar  
 38  20  36  1   
 39  21  37  1   
@<TRIPOS>SUBSTRUCTURE
  1 ****   4 GROUP 4 **** **** 0

# MOE 2024.06 (io_trps.svl 2023.06)
