@<TRIPOS>MOLECULE
8,8-Dimethyl-5-pyridin-4-yl-5,8,9,10-tetrahydro-1H,7H-pyrimido[4,5-b]quinoline-2
43 46 1 0 0 
SMALL
USER_CHARGES


@<TRIPOS>ATOM
  1 O       -0.9180     0.1920    -1.0350 O.2   1 <1>  -0.5700 
  2 C       -1.8530    -0.5100    -0.7240 C.2   1 <1>   0.6900 
  3 N       -3.1240    -0.1490    -1.0250 N.am  1 <1>  -0.5390 
  4 N       -1.6730    -1.6710    -0.0630 N.am  1 <1>  -0.4900 
  5 C       -4.2020    -0.9240    -0.6890 C.2   1 <1>   0.2090 
  6 C       -2.7000    -2.4820     0.3250 C.2   1 <1>   0.6160 
  7 N       -5.4320    -0.4360    -1.0310 N.pl3 1 <1>  -0.6000 
  8 C       -4.0510    -2.1320    -0.0340 C.2   1 <1>   0.0140 
  9 O       -2.3550    -3.4440     0.9830 O.2   1 <1>  -0.5700 
 10 C       -6.5760    -1.0590    -0.6010 C.2   1 <1>  -0.0380 
 11 C       -5.2420    -2.9470     0.1780 C.2   1 <1>   0.0000 
 12 C       -6.5240    -2.2620     0.0530 C.2   1 <1>   0.0140 
 13 C       -7.8750    -0.3150    -0.8940 C.3   1 <1>  -0.0220 
 14 C       -5.2190    -4.3180     0.3140 C.2   1 <1>   0.0000 
 15 C       -7.7290    -2.8220     0.6150 C.2   1 <1>   0.4950 
 16 C       -9.0320    -0.7310     0.0360 C.3   1 <1>   0.0000 
 17 C       -4.6550    -5.0280     1.4300 C.2   1 <1>  -0.1500 
 18 C       -5.8330    -5.1680    -0.6720 C.2   1 <1>  -0.1500 
 19 O       -7.7790    -3.6790     1.4630 O.2   1 <1>  -0.5700 
 20 C       -9.0620    -2.2650     0.1460 C.3   1 <1>  -0.0990 
 21 C       -8.8410    -0.1040     1.4300 C.3   1 <1>  -0.2400 
 22 C      -10.3670    -0.2300    -0.5390 C.3   1 <1>  -0.2400 
 23 C       -4.6550    -6.3780     1.5130 C.2   1 <1>  -0.0500 
 24 C       -5.8320    -6.5180    -0.5790 C.2   1 <1>  -0.0500 
 25 N       -5.2260    -7.1500     0.5030 N.pl3 1 <1>  -0.6000 
 26 H       -3.2150     0.7380    -1.5140 H     1 <1>   0.3700 
 27 H       -0.7320    -1.9440     0.1930 H     1 <1>   0.3700 
 28 H       -5.4950     0.4490    -1.5400 H     1 <1>   0.4000 
 29 H       -8.1420    -0.5150    -1.9170 H     1 <1>   0.0800 
 30 H       -7.7170     0.7460    -0.8030 H     1 <1>   0.0800 
 31 H       -4.2340    -4.4360     2.2210 H     1 <1>   0.1500 
 32 H       -6.3000    -4.6820    -1.5070 H     1 <1>   0.1500 
 33 H       -9.8320    -2.5680     0.8340 H     1 <1>   0.0800 
 34 H       -9.2870    -2.7030    -0.8090 H     1 <1>   0.0800 
 35 H       -7.9000    -0.3900     1.8660 H     1 <1>   0.0800 
 36 H       -9.6250    -0.4190     2.0960 H     1 <1>   0.0800 
 37 H       -8.8650     0.9700     1.3700 H     1 <1>   0.0800 
 38 H      -10.5510    -0.6560    -1.5100 H     1 <1>   0.0800 
 39 H      -10.3620     0.8410    -0.6340 H     1 <1>   0.0800 
 40 H      -11.1820    -0.5070     0.1080 H     1 <1>   0.0800 
 41 H       -4.2280    -6.9040     2.3510 H     1 <1>   0.1500 
 42 H       -6.2910    -7.1520    -1.3190 H     1 <1>   0.1500 
 43 H       -5.2420    -8.1730     0.5840 H     1 <1>   0.4000 
@<TRIPOS>BOND
  1   1   2  2   
  2   2   3  am  
  3   2   4  am  
  4   3   5  1   
  5   3  26  1   
  6   4   6  am  
  7   4  27  1   
  8   5   7  1   
  9   5   8  2   
 10   6   8  1   
 11   6   9  2   
 12   7  10  1   
 13   7  28  1   
 14   8  11  1   
 15  10  12  2   
 16  10  13  1   
 17  11  12  1   
 18  11  14  2   
 19  12  15  1   
 20  13  16  1   
 21  13  29  1   
 22  13  30  1   
 23  14  17  1   
 24  14  18  1   
 25  15  19  2   
 26  15  20  1   
 27  16  20  1   
 28  16  21  1   
 29  16  22  1   
 30  17  23  2   
 31  17  31  1   
 32  18  24  2   
 33  18  32  1   
 34  20  33  1   
 35  20  34  1   
 36  21  35  1   
 37  21  36  1   
 38  21  37  1   
 39  22  38  1   
 40  22  39  1   
 41  22  40  1   
 42  23  25  1   
 43  23  41  1   
 44  24  25  1   
 45  24  42  1   
 46  25  43  1   
@<TRIPOS>SUBSTRUCTURE
  1 ****  11 GROUP 4 **** **** 0

# MOE 2024.06 (io_trps.svl 2023.06)
