@<TRIPOS>MOLECULE
1-Pyridin-3-ylmethyl-piperidin-4-ylamine
33 34 1 0 0 
SMALL
USER_CHARGES


@<TRIPOS>ATOM
  1 N        1.2660     0.0530     1.6020 N.ar  1 <1>  -0.6200 
  2 C        1.8370     1.1030     1.0460 C.ar  1 <1>   0.1600 
  3 C        1.2220    -1.0400     0.8580 C.ar  1 <1>   0.1600 
  4 C        2.4090     1.1160    -0.2180 C.ar  1 <1>  -0.1440 
  5 C        1.7370    -1.1310    -0.4240 C.ar  1 <1>  -0.1500 
  6 C        2.3490    -0.0320    -0.9880 C.ar  1 <1>  -0.1500 
  7 C        3.0930     2.3650    -0.7270 C.3   1 <1>   0.4870 
  8 N        4.4240     2.4980    -0.0450 N.4   1 <1>  -0.9590 
  9 C        5.0540     3.8100    -0.3680 C.3   1 <1>   0.3430 
 10 C        5.3020     1.3250    -0.3460 C.3   1 <1>   0.3430 
 11 C        6.3760     3.9550     0.3930 C.3   1 <1>  -0.1600 
 12 C        6.6230     1.4520     0.4160 C.3   1 <1>  -0.1600 
 13 C        7.3150     2.7800     0.1040 C.3   1 <1>   0.4230 
 14 N        8.5400     2.9060     0.9210 N.4   1 <1>  -0.8530 
 15 H        1.8450     1.9970     1.6480 H     1 <1>   0.1500 
 16 H        0.7480    -1.9060     1.2900 H     1 <1>   0.1500 
 17 H        1.6530    -2.0560    -0.9680 H     1 <1>   0.1500 
 18 H        2.7500    -0.0890    -1.9860 H     1 <1>   0.1500 
 19 H        2.4730     3.2210    -0.5110 H     1 <1>   0.0800 
 20 H        3.2210     2.3010    -1.7960 H     1 <1>   0.0800 
 21 H        4.2030     2.4680     0.9620 H     1 <1>   0.4500 
 22 H        4.3900     4.6170    -0.0930 H     1 <1>   0.0800 
 23 H        5.2350     3.8760    -1.4310 H     1 <1>   0.0800 
 24 H        5.4920     1.2730    -1.4070 H     1 <1>   0.0800 
 25 H        4.8090     0.4090    -0.0520 H     1 <1>   0.0800 
 26 H        6.1620     4.0250     1.4450 H     1 <1>   0.0800 
 27 H        6.8400     4.8760     0.0840 H     1 <1>   0.0800 
 28 H        7.2570     0.6320     0.1230 H     1 <1>   0.0800 
 29 H        6.4220     1.3600     1.4700 H     1 <1>   0.0800 
 30 H        7.5830     2.7970    -0.9430 H     1 <1>   0.0800 
 31 H        8.3420     2.8930     1.9290 H     1 <1>   0.4500 
 32 H        9.0420     3.7800     0.7200 H     1 <1>   0.4500 
 33 H        9.1990     2.1390     0.7330 H     1 <1>   0.4500 
@<TRIPOS>BOND
  1   1   2  ar  
  2   1   3  ar  
  3   2   4  ar  
  4   2  15  1   
  5   3   5  ar  
  6   3  16  1   
  7   4   6  ar  
  8   4   7  1   
  9   5   6  ar  
 10   5  17  1   
 11   6  18  1   
 12   7   8  1   
 13   7  19  1   
 14   7  20  1   
 15   8   9  1   
 16   8  10  1   
 17   8  21  1   
 18   9  11  1   
 19   9  22  1   
 20   9  23  1   
 21  10  12  1   
 22  10  24  1   
 23  10  25  1   
 24  11  13  1   
 25  11  26  1   
 26  11  27  1   
 27  12  13  1   
 28  12  28  1   
 29  12  29  1   
 30  13  14  1   
 31  13  30  1   
 32  14  31  1   
 33  14  32  1   
 34  14  33  1   
@<TRIPOS>SUBSTRUCTURE
  1 ****   8 GROUP 4 **** **** 0

# MOE 2024.06 (io_trps.svl 2023.06)
