@<TRIPOS>MOLECULE
5-(2,4-Dimethoxy-phenyl)-4,6-dioxo-1,3a,4,5,6,6a-hexahydro-pyrrolo[3,4-c]pyrazol
39 41 1 0 0 
SMALL
USER_CHARGES


@<TRIPOS>ATOM
  1 O       -0.1160    -0.5640    -1.7420 O.2   1 <1>  -0.5700 
  2 C        0.2180    -1.5180    -1.0830 C.2   1 <1>   0.5690 
  3 N       -0.5370    -2.6190    -0.7450 N.am  1 <1>  -0.2370 
  4 C        1.5660    -1.7110    -0.4250 C.3   1 <1>   0.2510 
  5 C       -1.9440    -2.6250    -0.6340 C.ar  1 <1>   0.1170 
  6 C        0.3010    -3.5820    -0.2240 C.2   1 <1>   0.5690 
  7 N        2.9500    -1.3480    -0.7280 N.pl3 1 <1>  -0.5280 
  8 C        1.7100    -3.2010    -0.5650 C.3   1 <1>   0.0420 
  9 C       -2.5990    -1.7440     0.2300 C.ar  1 <1>   0.0830 
 10 C       -2.7010    -3.5110    -1.3880 C.ar  1 <1>  -0.1500 
 11 O       -0.0120    -4.5670     0.3910 O.2   1 <1>  -0.5700 
 12 N        3.7790    -2.2830    -0.2060 N.2   1 <1>  -0.5030 
 13 C        3.1000    -3.3710     0.0090 C.2   1 <1>   0.3890 
 14 O       -1.8640    -0.8820     0.9800 O.3   1 <1>  -0.3630 
 15 C       -3.9810    -1.7560     0.3390 C.ar  1 <1>  -0.1500 
 16 C       -4.0810    -3.5170    -1.2870 C.ar  1 <1>  -0.1500 
 17 C        3.5130    -4.6160     0.5970 C.2   1 <1>   0.7200 
 18 C       -2.1100     0.4950     0.7940 C.3   1 <1>   0.0400 
 19 C       -4.7290    -2.6450    -0.4280 C.ar  1 <1>   0.0830 
 20 O        4.5460    -4.7820     1.2250 O.2   1 <1>  -0.5700 
 21 O        2.7070    -5.6770     0.4360 O.3   1 <1>  -0.4300 
 22 O       -6.0840    -2.7230    -0.3890 O.3   1 <1>  -0.3630 
 23 C        2.9960    -6.9360     1.0140 C.3   1 <1>   0.0400 
 24 C       -6.8360    -1.9260     0.4990 C.3   1 <1>   0.0400 
 25 H        1.4170    -1.4560     0.6120 H     1 <1>   0.0800 
 26 H        3.2130    -0.3590    -0.8660 H     1 <1>   0.3110 
 27 H        1.8140    -3.4480    -1.6090 H     1 <1>   0.0800 
 28 H       -2.2140    -4.2000    -2.0550 H     1 <1>   0.1500 
 29 H       -4.4540    -1.0810     1.0230 H     1 <1>   0.1500 
 30 H       -4.6670    -4.2030    -1.8730 H     1 <1>   0.1500 
 31 H       -1.3540     1.0470     1.3230 H     1 <1>   0.0800 
 32 H       -3.0810     0.7400     1.1830 H     1 <1>   0.0800 
 33 H       -2.0570     0.7200    -0.2580 H     1 <1>   0.0800 
 34 H        2.2020    -7.6160     0.7620 H     1 <1>   0.0800 
 35 H        3.0580    -6.8220     2.0830 H     1 <1>   0.0800 
 36 H        3.9330    -7.2950     0.6230 H     1 <1>   0.0800 
 37 H       -7.8750    -2.1730     0.3700 H     1 <1>   0.0800 
 38 H       -6.6760    -0.8900     0.2600 H     1 <1>   0.0800 
 39 H       -6.5320    -2.1440     1.5070 H     1 <1>   0.0800 
@<TRIPOS>BOND
  1   1   2  2   
  2   2   3  am  
  3   2   4  1   
  4   3   5  1   
  5   3   6  am  
  6   4   7  1   
  7   4   8  1   
  8   4  25  1   
  9   5   9  ar  
 10   5  10  ar  
 11   6   8  1   
 12   6  11  2   
 13   7  12  1   
 14   7  26  1   
 15   8  13  1   
 16   8  27  1   
 17   9  14  1   
 18   9  15  ar  
 19  10  16  ar  
 20  10  28  1   
 21  12  13  2   
 22  13  17  1   
 23  14  18  1   
 24  15  19  ar  
 25  15  29  1   
 26  16  19  ar  
 27  16  30  1   
 28  17  20  2   
 29  17  21  1   
 30  18  31  1   
 31  18  32  1   
 32  18  33  1   
 33  19  22  1   
 34  21  23  1   
 35  22  24  1   
 36  23  34  1   
 37  23  35  1   
 38  23  36  1   
 39  24  37  1   
 40  24  38  1   
 41  24  39  1   
@<TRIPOS>SUBSTRUCTURE
  1 ****   3 GROUP 4 **** **** 0

# MOE 2024.06 (io_trps.svl 2023.06)
