@<TRIPOS>MOLECULE
4-[3-(3-Bromo-5-ethoxy-4-methoxy-phenyl)-[1,2,4]oxadiazol-5-yl]-1-pyrrolidin-1-y
51 53 1 0 0 
SMALL
USER_CHARGES


@<TRIPOS>ATOM
  1 BR       0.2940    -0.2680     0.7870 Br    1 <1>  -0.1110 
  2 C        0.2040     1.6400     0.5080 C.ar  1 <1>   0.1110 
  3 C       -1.0130     2.2300     0.2050 C.ar  1 <1>   0.0830 
  4 C        1.3750     2.3620     0.6130 C.ar  1 <1>  -0.1500 
  5 O       -2.1250     1.4580     0.0960 O.3   1 <1>  -0.3630 
  6 C       -1.0320     3.6150     0.0260 C.ar  1 <1>   0.0830 
  7 C        1.3720     3.7440     0.4120 C.ar  1 <1>   0.0540 
  8 C       -2.6980     1.3550    -1.1890 C.3   1 <1>   0.0400 
  9 O       -2.1720     4.2950    -0.2420 O.3   1 <1>  -0.3630 
 10 C        0.1430     4.3440     0.1170 C.ar  1 <1>  -0.1500 
 11 C        2.5980     4.5190     0.5110 C.2   1 <1>   0.4620 
 12 C       -3.1130     4.3720     0.8040 C.3   1 <1>   0.1200 
 13 N        3.7710     4.0390     0.7280 N.2   1 <1>  -0.4100 
 14 N        2.6260     5.8480     0.3830 N.2   1 <1>  -0.5650 
 15 C       -4.3030     5.1890     0.3110 C.3   1 <1>  -0.2400 
 16 O        4.6070     5.0280     0.7490 O.3   1 <1>  -0.0190 
 17 C        3.8630     6.0830     0.5380 C.2   1 <1>   0.2980 
 18 C        4.5540     7.4380     0.5020 C.3   1 <1>   0.0200 
 19 C        3.5920     8.6240     0.3150 C.3   1 <1>  -0.1600 
 20 C        4.3430     9.9700     0.2820 C.3   1 <1>  -0.0990 
 21 C        3.4460    11.1890     0.0930 C.2   1 <1>   0.5690 
 22 O        2.2480    11.0600     0.1780 O.2   1 <1>  -0.5700 
 23 N        4.0140    12.4060    -0.1600 N.am  1 <1>  -0.6600 
 24 C        5.4590    12.7120    -0.2420 C.3   1 <1>   0.1400 
 25 C        3.2000    13.6250    -0.3610 C.3   1 <1>   0.1400 
 26 C        5.5330    14.2350    -0.2460 C.3   1 <1>  -0.1600 
 27 C        4.1930    14.6850    -0.8220 C.3   1 <1>  -0.1600 
 28 H        2.2910     1.8500     0.8480 H     1 <1>   0.1500 
 29 H       -3.5010     0.6430    -1.1420 H     1 <1>   0.0800 
 30 H       -1.9450     1.0150    -1.8780 H     1 <1>   0.0800 
 31 H       -3.0760     2.3150    -1.4900 H     1 <1>   0.0800 
 32 H        0.0970     5.4070    -0.0430 H     1 <1>   0.1500 
 33 H       -2.6420     4.8480     1.6480 H     1 <1>   0.0800 
 34 H       -3.4200     3.3770     1.0750 H     1 <1>   0.0800 
 35 H       -3.9830     6.1780     0.0360 H     1 <1>   0.0800 
 36 H       -5.0370     5.2690     1.0920 H     1 <1>   0.0800 
 37 H       -4.7550     4.7070    -0.5370 H     1 <1>   0.0800 
 38 H        5.2680     7.4260    -0.3020 H     1 <1>   0.0800 
 39 H        5.0940     7.5610     1.4240 H     1 <1>   0.0800 
 40 H        2.8770     8.6330     1.1210 H     1 <1>   0.0800 
 41 H        3.0440     8.5000    -0.6050 H     1 <1>   0.0800 
 42 H        5.0530     9.9500    -0.5240 H     1 <1>   0.0800 
 43 H        4.8790    10.0990     1.2040 H     1 <1>   0.0800 
 44 H        5.8510    12.3180    -1.1640 H     1 <1>   0.0800 
 45 H        5.9940    12.2970     0.5950 H     1 <1>   0.0800 
 46 H        2.7510    13.9040     0.5770 H     1 <1>   0.0800 
 47 H        2.4280    13.4530    -1.0920 H     1 <1>   0.0800 
 48 H        6.3680    14.5950    -0.8210 H     1 <1>   0.0800 
 49 H        5.6290    14.5840     0.7670 H     1 <1>   0.0800 
 50 H        3.9100    15.6680    -0.4890 H     1 <1>   0.0800 
 51 H        4.2350    14.6790    -1.8980 H     1 <1>   0.0800 
@<TRIPOS>BOND
  1   1   2  1   
  2   2   3  ar  
  3   2   4  ar  
  4   3   5  1   
  5   3   6  ar  
  6   4   7  ar  
  7   4  28  1   
  8   5   8  1   
  9   6   9  1   
 10   6  10  ar  
 11   7  10  ar  
 12   7  11  1   
 13   8  29  1   
 14   8  30  1   
 15   8  31  1   
 16   9  12  1   
 17  10  32  1   
 18  11  13  2   
 19  11  14  1   
 20  12  15  1   
 21  12  33  1   
 22  12  34  1   
 23  13  16  1   
 24  14  17  2   
 25  15  35  1   
 26  15  36  1   
 27  15  37  1   
 28  16  17  1   
 29  17  18  1   
 30  18  19  1   
 31  18  38  1   
 32  18  39  1   
 33  19  20  1   
 34  19  40  1   
 35  19  41  1   
 36  20  21  1   
 37  20  42  1   
 38  20  43  1   
 39  21  22  2   
 40  21  23  am  
 41  23  24  1   
 42  23  25  1   
 43  24  26  1   
 44  24  44  1   
 45  24  45  1   
 46  25  27  1   
 47  25  46  1   
 48  25  47  1   
 49  26  27  1   
 50  26  48  1   
 51  26  49  1   
 52  27  50  1   
 53  27  51  1   
@<TRIPOS>SUBSTRUCTURE
  1 ****  14 GROUP 4 **** **** 0

# MOE 2024.06 (io_trps.svl 2023.06)
