@<TRIPOS>MOLECULE
5-(3,5-Dimethyl-phenyl)-4,6-dioxo-1,3a,4,5,6,6a-hexahydro-pyrrolo[3,4-c]pyrazole
37 39 1 0 0 
SMALL
USER_CHARGES


@<TRIPOS>ATOM
  1 O        0.0210    -0.4870    -1.0790 O.2   1 <1>  -0.5700 
  2 C        0.3500    -1.5330    -0.5790 C.2   1 <1>   0.5690 
  3 N       -0.4510    -2.5980    -0.2110 N.am  1 <1>  -0.2370 
  4 C        1.7660    -1.9040    -0.1910 C.3   1 <1>   0.2510 
  5 C       -1.8640    -2.5910    -0.1180 C.ar  1 <1>   0.1170 
  6 C        0.3760    -3.6680     0.0850 C.2   1 <1>   0.5690 
  7 N        3.1070    -1.6320    -0.7030 N.pl3 1 <1>  -0.5280 
  8 C        1.7310    -3.3770    -0.4830 C.3   1 <1>   0.0420 
  9 C       -2.5500    -1.4520     0.2910 C.ar  1 <1>  -0.1500 
 10 C       -2.6030    -3.7280    -0.4330 C.ar  1 <1>  -0.1500 
 11 O        0.1000    -4.6650     0.6970 O.2   1 <1>  -0.5700 
 12 N        3.9130    -2.6830    -0.4200 N.2   1 <1>  -0.5030 
 13 C        3.1730    -3.7260    -0.1850 C.2   1 <1>   0.3890 
 14 C       -3.9310    -1.4420     0.3830 C.ar  1 <1>  -0.1440 
 15 C       -3.9830    -3.7330    -0.3410 C.ar  1 <1>  -0.1440 
 16 C        3.5450    -5.0570     0.2060 C.2   1 <1>   0.7200 
 17 C       -4.6430    -2.5860     0.0660 C.ar  1 <1>  -0.1500 
 18 C       -4.6650    -0.1890     0.8270 C.3   1 <1>  -0.0960 
 19 C       -4.7770    -4.9810    -0.6830 C.3   1 <1>  -0.0960 
 20 O        4.6390    -5.3730     0.6460 O.2   1 <1>  -0.5700 
 21 O        2.6270    -6.0260     0.0690 O.3   1 <1>  -0.4300 
 22 C        2.8780    -7.3610     0.4650 C.3   1 <1>   0.0400 
 23 H        1.8220    -1.7460     0.8740 H     1 <1>   0.0800 
 24 H        3.4420    -0.6600    -0.8040 H     1 <1>   0.3110 
 25 H        1.6250    -3.5250    -1.5450 H     1 <1>   0.0800 
 26 H       -2.0030    -0.5600     0.5390 H     1 <1>   0.1500 
 27 H       -2.0960    -4.6210    -0.7510 H     1 <1>   0.1500 
 28 H       -5.7160    -2.5850     0.1380 H     1 <1>   0.1500 
 29 H       -4.0570     0.6840     0.6710 H     1 <1>   0.0800 
 30 H       -4.9090    -0.2620     1.8710 H     1 <1>   0.0800 
 31 H       -5.5740    -0.0720     0.2640 H     1 <1>   0.0800 
 32 H       -4.1430    -5.8490    -0.6850 H     1 <1>   0.0800 
 33 H       -5.2230    -4.8750    -1.6560 H     1 <1>   0.0800 
 34 H       -5.5570    -5.1340     0.0420 H     1 <1>   0.0800 
 35 H        1.9950    -7.9440     0.2750 H     1 <1>   0.0800 
 36 H        3.1100    -7.3760     1.5160 H     1 <1>   0.0800 
 37 H        3.7070    -7.7450    -0.1040 H     1 <1>   0.0800 
@<TRIPOS>BOND
  1   1   2  2   
  2   2   3  am  
  3   2   4  1   
  4   3   5  1   
  5   3   6  am  
  6   4   7  1   
  7   4   8  1   
  8   4  23  1   
  9   5   9  ar  
 10   5  10  ar  
 11   6   8  1   
 12   6  11  2   
 13   7  12  1   
 14   7  24  1   
 15   8  13  1   
 16   8  25  1   
 17   9  14  ar  
 18   9  26  1   
 19  10  15  ar  
 20  10  27  1   
 21  12  13  2   
 22  13  16  1   
 23  14  17  ar  
 24  14  18  1   
 25  15  17  ar  
 26  15  19  1   
 27  16  20  2   
 28  16  21  1   
 29  17  28  1   
 30  18  29  1   
 31  18  30  1   
 32  18  31  1   
 33  19  32  1   
 34  19  33  1   
 35  19  34  1   
 36  21  22  1   
 37  22  35  1   
 38  22  36  1   
 39  22  37  1   
@<TRIPOS>SUBSTRUCTURE
  1 ****   6 GROUP 4 **** **** 0

# MOE 2024.06 (io_trps.svl 2023.06)
