@<TRIPOS>MOLECULE
4-Phenyl-tetrahydro-pyran-4-carboxylic acid (5-methyl-[1,3,4]thiadiazol-2-yl)-am
38 40 1 0 0 
SMALL
USER_CHARGES


@<TRIPOS>ATOM
  1 S       -0.7610    -1.2240    -0.0560 S.3   1 <1>  -0.0800 
  2 C       -1.0940     0.2850    -0.8410 C.2   1 <1>   0.4420 
  3 C        0.6520    -1.3410    -1.0450 C.2   1 <1>   0.1980 
  4 N       -0.2030     0.5840    -1.7140 N.2   1 <1>  -0.3380 
  5 N       -2.2270     0.9520    -0.4300 N.am  1 <1>  -0.4940 
  6 N        0.7910    -0.3500    -1.8260 N.2   1 <1>  -0.3380 
  7 C        1.5360    -2.5570    -0.8840 C.3   1 <1>  -0.0600 
  8 C       -2.8390     2.0630    -0.9480 C.2   1 <1>   0.5690 
  9 O       -2.4880     2.5570    -1.9910 O.2   1 <1>  -0.5700 
 10 C       -4.0340     2.6380    -0.1420 C.3   1 <1>   0.2040 
 11 C       -4.8400     1.4330     0.4030 C.ar  1 <1>  -0.1440 
 12 C       -3.4760     3.5350     0.9890 C.3   1 <1>  -0.1600 
 13 C       -4.9930     3.5100    -1.0020 C.3   1 <1>  -0.1600 
 14 C       -5.0020     1.1560     1.7590 C.ar  1 <1>  -0.1500 
 15 C       -5.4150     0.5590    -0.5150 C.ar  1 <1>  -0.1500 
 16 C       -2.7830     4.7930     0.4390 C.3   1 <1>   0.1200 
 17 C       -4.7380     5.0210    -0.8910 C.3   1 <1>   0.1200 
 18 C       -5.7130     0.0440     2.1760 C.ar  1 <1>  -0.1500 
 19 C       -6.1240    -0.5530    -0.1000 C.ar  1 <1>  -0.1500 
 20 O       -3.3770     5.2530    -0.7380 O.3   1 <1>  -0.5600 
 21 C       -6.2740    -0.8130     1.2490 C.ar  1 <1>  -0.1500 
 22 H       -2.7420     0.5050     0.3270 H     1 <1>   0.3700 
 23 H        1.9050    -2.6110     0.1230 H     1 <1>   0.0800 
 24 H        2.3700    -2.4910    -1.5590 H     1 <1>   0.0800 
 25 H        0.9770    -3.4470    -1.1070 H     1 <1>   0.0800 
 26 H       -2.7750     2.9940     1.5990 H     1 <1>   0.0800 
 27 H       -4.2810     3.8570     1.6240 H     1 <1>   0.0800 
 28 H       -6.0110     3.3410    -0.7010 H     1 <1>   0.0800 
 29 H       -4.9280     3.2210    -2.0360 H     1 <1>   0.0800 
 30 H       -4.5880     1.7880     2.5230 H     1 <1>   0.1500 
 31 H       -5.3110     0.7370    -1.5730 H     1 <1>   0.1500 
 32 H       -1.7540     4.5800     0.2000 H     1 <1>   0.0800 
 33 H       -2.8090     5.5900     1.1620 H     1 <1>   0.0800 
 34 H       -5.2490     5.4450    -0.0440 H     1 <1>   0.0800 
 35 H       -5.0620     5.5270    -1.7840 H     1 <1>   0.0800 
 36 H       -5.8320    -0.1560     3.2280 H     1 <1>   0.1500 
 37 H       -6.5610    -1.2150    -0.8270 H     1 <1>   0.1500 
 38 H       -6.8270    -1.6770     1.5750 H     1 <1>   0.1500 
@<TRIPOS>BOND
  1   1   2  1   
  2   1   3  1   
  3   2   4  2   
  4   2   5  1   
  5   3   6  2   
  6   3   7  1   
  7   4   6  1   
  8   5   8  am  
  9   5  22  1   
 10   7  23  1   
 11   7  24  1   
 12   7  25  1   
 13   8   9  2   
 14   8  10  1   
 15  10  11  1   
 16  10  12  1   
 17  10  13  1   
 18  11  14  ar  
 19  11  15  ar  
 20  12  16  1   
 21  12  26  1   
 22  12  27  1   
 23  13  17  1   
 24  13  28  1   
 25  13  29  1   
 26  14  18  ar  
 27  14  30  1   
 28  15  19  ar  
 29  15  31  1   
 30  16  20  1   
 31  16  32  1   
 32  16  33  1   
 33  17  20  1   
 34  17  34  1   
 35  17  35  1   
 36  18  21  ar  
 37  18  36  1   
 38  19  21  ar  
 39  19  37  1   
 40  21  38  1   
@<TRIPOS>SUBSTRUCTURE
  1 ****   5 GROUP 4 **** **** 0

# MOE 2024.06 (io_trps.svl 2023.06)
