@<TRIPOS>MOLECULE
3-[5-(2,3-Dimethyl-1H-indol-5-yl)-4-methyl-4H-[1,2,4]triazol-3-ylsulfanyl]-propi
39 41 1 0 0 
SMALL
USER_CHARGES


@<TRIPOS>ATOM
  1 S       -0.1430    -0.2160     0.4190 S.3   1 <1>  -0.2860 
  2 C       -1.8170    -0.1190    -0.2250 C.2   1 <1>   0.2420 
  3 C        0.6660     1.2740    -0.3150 C.3   1 <1>   0.0700 
  4 N       -2.2260     0.8200    -1.0000 N.2   1 <1>  -0.3380 
  5 N       -2.7520    -1.0200     0.0610 N.pl3 1 <1>   0.0480 
  6 C        2.1180     1.3100     0.1580 C.3   1 <1>   0.0400 
  7 N       -3.5060     0.5460    -1.2540 N.2   1 <1>  -0.3380 
  8 C       -3.8140    -0.5570    -0.6270 C.2   1 <1>   0.1330 
  9 C       -2.6570    -2.1940     0.9530 C.3   1 <1>   0.0160 
 10 C        2.8200     2.4930    -0.4050 C.1   1 <1>   0.3570 
 11 C       -5.1080    -1.1930    -0.6430 C.ar  1 <1>   0.0530 
 12 N        3.3560     3.3980    -0.8360 N.1   1 <1>  -0.5570 
 13 C       -6.2400    -0.5060    -0.2430 C.ar  1 <1>  -0.1500 
 14 C       -5.2480    -2.5330    -1.0600 C.ar  1 <1>  -0.1500 
 15 C       -7.4880    -1.1340    -0.2250 C.ar  1 <1>   0.0000 
 16 C       -6.4670    -3.1680    -1.0520 C.ar  1 <1>  -0.1500 
 17 C       -7.5920    -2.4600    -0.6250 C.ar  1 <1>  -0.1520 
 18 C       -8.7910    -0.7180     0.1310 C.2   1 <1>  -0.1810 
 19 N       -8.9040    -2.8370    -0.5160 N.pl3 1 <1>   0.0330 
 20 C       -9.6260    -1.7720    -0.0540 C.2   1 <1>  -0.3320 
 21 C       -9.0970     0.6840     0.6220 C.3   1 <1>  -0.0590 
 22 C      -11.1240    -1.8870     0.1690 C.3   1 <1>  -0.0600 
 23 H        0.1130     2.1360     0.0180 H     1 <1>   0.0800 
 24 H        0.5940     1.1830    -1.3850 H     1 <1>   0.0800 
 25 H        2.6280     0.4210    -0.1620 H     1 <1>   0.0800 
 26 H        2.1520     1.3660     1.2300 H     1 <1>   0.0800 
 27 H       -2.0010    -1.9710     1.7750 H     1 <1>   0.0800 
 28 H       -2.2680    -3.0300     0.4010 H     1 <1>   0.0800 
 29 H       -3.6300    -2.4370     1.3390 H     1 <1>   0.0800 
 30 H       -6.1680     0.5220     0.0600 H     1 <1>   0.1500 
 31 H       -4.3750    -3.0590    -1.4000 H     1 <1>   0.1500 
 32 H       -6.5670    -4.1900    -1.3720 H     1 <1>   0.1500 
 33 H       -9.2740    -3.7630    -0.7510 H     1 <1>   0.2700 
 34 H       -8.5400     0.8840     1.5190 H     1 <1>   0.0800 
 35 H      -10.1430     0.8030     0.8320 H     1 <1>   0.0800 
 36 H       -8.8140     1.3990    -0.1300 H     1 <1>   0.0800 
 37 H      -11.5320    -0.9640     0.5340 H     1 <1>   0.0800 
 38 H      -11.3300    -2.6570     0.8910 H     1 <1>   0.0800 
 39 H      -11.6150    -2.1330    -0.7550 H     1 <1>   0.0800 
@<TRIPOS>BOND
  1   1   2  1   
  2   1   3  1   
  3   2   4  2   
  4   2   5  1   
  5   3   6  1   
  6   3  23  1   
  7   3  24  1   
  8   4   7  1   
  9   5   8  1   
 10   5   9  1   
 11   6  10  1   
 12   6  25  1   
 13   6  26  1   
 14   7   8  2   
 15   8  11  1   
 16   9  27  1   
 17   9  28  1   
 18   9  29  1   
 19  10  12  3   
 20  11  13  ar  
 21  11  14  ar  
 22  13  15  ar  
 23  13  30  1   
 24  14  16  ar  
 25  14  31  1   
 26  15  17  ar  
 27  15  18  1   
 28  16  17  ar  
 29  16  32  1   
 30  17  19  1   
 31  18  20  2   
 32  18  21  1   
 33  19  20  1   
 34  19  33  1   
 35  20  22  1   
 36  21  34  1   
 37  21  35  1   
 38  21  36  1   
 39  22  37  1   
 40  22  38  1   
 41  22  39  1   
@<TRIPOS>SUBSTRUCTURE
  1 ****   8 GROUP 4 **** **** 0

# MOE 2024.06 (io_trps.svl 2023.06)
