@<TRIPOS>MOLECULE
3-(1H-Pyrazol-4-yl)-propylamine
21 21 1 0 0 
SMALL
USER_CHARGES


@<TRIPOS>ATOM
  1 N       -0.2690    -0.0090    -0.3670 N.2   1 <1>  -0.7070 
  2 N       -1.1030    -0.3500     0.6320 N.pl3 1 <1>   0.3000 
  3 C       -0.8040     1.0440    -0.9000 C.2   1 <1>   0.1390 
  4 C       -2.1450     0.5010     0.7180 C.2   1 <1>  -0.3020 
  5 C       -1.9820     1.4180    -0.2590 C.2   1 <1>  -0.1810 
  6 C       -2.8660     2.5990    -0.5980 C.3   1 <1>   0.0210 
  7 C       -2.2290     3.8860    -0.0590 C.3   1 <1>  -0.1600 
  8 C       -3.1050     5.1030    -0.3420 C.3   1 <1>   0.3430 
  9 N       -2.4480     6.3090     0.2120 N.4   1 <1>  -0.8530 
 10 H       -0.9310    -1.1680     1.2310 H     1 <1>   0.2700 
 11 H       -0.3700     1.5560    -1.7420 H     1 <1>   0.1500 
 12 H       -2.9220     0.3980     1.4540 H     1 <1>   0.1500 
 13 H       -3.8350     2.4460    -0.1550 H     1 <1>   0.0800 
 14 H       -2.9890     2.6500    -1.6670 H     1 <1>   0.0800 
 15 H       -1.2650     4.0090    -0.5210 H     1 <1>   0.0800 
 16 H       -2.0910     3.7720     1.0030 H     1 <1>   0.0800 
 17 H       -4.0740     4.9670     0.1130 H     1 <1>   0.0800 
 18 H       -3.2410     5.2120    -1.4080 H     1 <1>   0.0800 
 19 H       -2.3150     6.2180     1.2260 H     1 <1>   0.4500 
 20 H       -3.0100     7.1520     0.0410 H     1 <1>   0.4500 
 21 H       -1.5250     6.4510    -0.2130 H     1 <1>   0.4500 
@<TRIPOS>BOND
  1   1   2  1   
  2   1   3  2   
  3   2   4  1   
  4   2  10  1   
  5   3   5  1   
  6   3  11  1   
  7   4   5  2   
  8   4  12  1   
  9   5   6  1   
 10   6   7  1   
 11   6  13  1   
 12   6  14  1   
 13   7   8  1   
 14   7  15  1   
 15   7  16  1   
 16   8   9  1   
 17   8  17  1   
 18   8  18  1   
 19   9  19  1   
 20   9  20  1   
 21   9  21  1   
@<TRIPOS>SUBSTRUCTURE
  1 ****   5 GROUP 4 **** **** 0

# MOE 2024.06 (io_trps.svl 2023.06)
