@<TRIPOS>MOLECULE
2-[8-(3,5-Dimethyl-piperidin-1-ylmethyl)-1,3-dimethyl-2,6-dioxo-1,2,3,6-tetrahyd
53 55 1 0 0 
SMALL
USER_CHARGES


@<TRIPOS>ATOM
  1 O        0.6270     0.9020     1.4380 O.2   1 <1>  -0.5700 
  2 C        1.6710     1.2930     0.9580 C.2   1 <1>   0.6900 
  3 N        1.6790     2.4160     0.1350 N.am  1 <1>  -0.4200 
  4 N        2.8540     0.6240     1.2380 N.am  1 <1>  -0.4360 
  5 C        2.8660     2.9220    -0.3770 C.2   1 <1>   0.7030 
  6 C        0.3830     3.1080    -0.1500 C.3   1 <1>   0.0600 
  7 C        4.0270     1.1240     0.7040 C.2   1 <1>   0.4260 
  8 C        2.8680    -0.5810     2.1200 C.3   1 <1>   0.0600 
  9 O        2.8810     3.9550    -1.0270 O.2   1 <1>  -0.5700 
 10 C        4.0810     2.2120    -0.1000 C.2   1 <1>   0.2770 
 11 N        5.2920     0.6700     0.8790 N.pl3 1 <1>  -0.7000 
 12 N        5.4240     2.3890    -0.4440 N.pl3 1 <1>  -0.7640 
 13 C        6.1190     1.4530     0.1970 C.cat 1 <1>   0.6560 
 14 C        5.9560     3.5140    -1.2890 C.3   1 <1>   0.4150 
 15 C        7.6420     1.2410     0.2200 C.3   1 <1>   0.2540 
 16 C        6.5370     4.6400    -0.4280 C.2   1 <1>   0.5690 
 17 N        7.9990    -0.1720     0.5310 N.3   1 <1>  -0.8100 
 18 O        7.6080     4.4590     0.0940 O.2   1 <1>  -0.5700 
 19 N        5.8610     5.7920    -0.2170 N.am  1 <1>  -0.8000 
 20 C        7.7180    -1.0700    -0.6210 C.3   1 <1>   0.1100 
 21 C        9.3770    -0.2930     1.0750 C.3   1 <1>   0.1100 
 22 C        8.5060    -2.3830    -0.5180 C.3   1 <1>  -0.0800 
 23 C       10.3900    -0.7240     0.0040 C.3   1 <1>  -0.0800 
 24 C       10.0230    -2.1090    -0.5670 C.3   1 <1>  -0.1600 
 25 C        8.0950    -3.3650    -1.6220 C.3   1 <1>  -0.2400 
 26 C       11.8190    -0.7310     0.5620 C.3   1 <1>  -0.2400 
 27 H       -0.3980     2.3830    -0.3060 H     1 <1>   0.0800 
 28 H        0.4550     3.7200    -1.0330 H     1 <1>   0.0800 
 29 H        0.1150     3.7300     0.6870 H     1 <1>   0.0800 
 30 H        1.8950    -1.0430     2.1460 H     1 <1>   0.0800 
 31 H        3.1380    -0.2940     3.1210 H     1 <1>   0.0800 
 32 H        3.5720    -1.3060     1.7520 H     1 <1>   0.0800 
 33 H        5.6390    -0.1240     1.4260 H     1 <1>   0.4500 
 34 H        5.1820     3.9080    -1.9220 H     1 <1>   0.0800 
 35 H        6.7370     3.1430    -1.9280 H     1 <1>   0.0800 
 36 H        8.0380     1.8890     0.9830 H     1 <1>   0.0800 
 37 H        8.0780     1.5330    -0.7180 H     1 <1>   0.0800 
 38 H        6.2810     6.5220     0.3650 H     1 <1>   0.3700 
 39 H        4.9290     6.0070    -0.5830 H     1 <1>   0.3700 
 40 H        7.9920    -0.5870    -1.5440 H     1 <1>   0.0800 
 41 H        6.6640    -1.2880    -0.6560 H     1 <1>   0.0800 
 42 H        9.3690    -1.0390     1.8530 H     1 <1>   0.0800 
 43 H        9.6910     0.6320     1.5290 H     1 <1>   0.0800 
 44 H        8.2640    -2.8340     0.4300 H     1 <1>   0.0800 
 45 H       10.3560     0.0010    -0.7920 H     1 <1>   0.0800 
 46 H       10.3820    -2.1600    -1.5810 H     1 <1>   0.0800 
 47 H       10.5190    -2.8870    -0.0120 H     1 <1>   0.0800 
 48 H        8.2940    -2.9530    -2.5960 H     1 <1>   0.0800 
 49 H        7.0460    -3.5920    -1.5520 H     1 <1>   0.0800 
 50 H        8.6450    -4.2850    -1.5210 H     1 <1>   0.0800 
 51 H       11.9030    -1.4210     1.3840 H     1 <1>   0.0800 
 52 H       12.0900     0.2500     0.9100 H     1 <1>   0.0800 
 53 H       12.5160    -1.0230    -0.2040 H     1 <1>   0.0800 
@<TRIPOS>BOND
  1   1   2  2   
  2   2   3  am  
  3   2   4  am  
  4   3   5  am  
  5   3   6  1   
  6   4   7  1   
  7   4   8  1   
  8   5   9  2   
  9   5  10  1   
 10   6  27  1   
 11   6  28  1   
 12   6  29  1   
 13   7  10  2   
 14   7  11  1   
 15   8  30  1   
 16   8  31  1   
 17   8  32  1   
 18  10  12  1   
 19  11  13  ar  
 20  11  33  1   
 21  12  13  ar  
 22  12  14  1   
 23  13  15  1   
 24  14  16  1   
 25  14  34  1   
 26  14  35  1   
 27  15  17  1   
 28  15  36  1   
 29  15  37  1   
 30  16  18  2   
 31  16  19  am  
 32  17  20  1   
 33  17  21  1   
 34  19  38  1   
 35  19  39  1   
 36  20  22  1   
 37  20  40  1   
 38  20  41  1   
 39  21  23  1   
 40  21  42  1   
 41  21  43  1   
 42  22  24  1   
 43  22  25  1   
 44  22  44  1   
 45  23  24  1   
 46  23  26  1   
 47  23  45  1   
 48  24  46  1   
 49  24  47  1   
 50  25  48  1   
 51  25  49  1   
 52  25  50  1   
 53  26  51  1   
 54  26  52  1   
 55  26  53  1   
@<TRIPOS>SUBSTRUCTURE
  1 ****  13 GROUP 4 **** **** 0

# MOE 2024.06 (io_trps.svl 2023.06)
