@<TRIPOS>MOLECULE
(6-Chloro-5,7-dimethyl-[1,2,4]triazolo[1,5-a]pyrimidin-2-yl)-(3,4-dimethoxy-benz
43 45 1 0 0 
SMALL
USER_CHARGES


@<TRIPOS>ATOM
  1 CL      -3.0940     0.3400     2.7350 Cl    1 <1>  -0.1400 
  2 C       -4.0440    -0.4570     1.4930 C.2   1 <1>   0.1540 
  3 C       -4.1920    -1.8640     1.5370 C.2   1 <1>   0.3750 
  4 C       -4.6390     0.2560     0.4910 C.2   1 <1>   0.2410 
  5 N       -4.8850    -2.5360     0.6580 N.2   1 <1>  -0.6120 
  6 C       -3.5300    -2.6620     2.6460 C.3   1 <1>  -0.1790 
  7 N       -5.3510    -0.4730    -0.4250 N.pl3 1 <1>  -0.3220 
  8 C       -4.5860     1.7680     0.3130 C.3   1 <1>  -0.1020 
  9 C       -5.4560    -1.8020    -0.3000 C.cat 1 <1>   0.9620 
 10 N       -6.0680    -0.0680    -1.5140 N.2   1 <1>  -0.2600 
 11 N       -6.2170    -2.2440    -1.2710 N.pl3 1 <1>  -0.7000 
 12 C       -6.5880    -1.1670    -1.9690 C.2   1 <1>   0.7490 
 13 N       -7.4540    -1.3060    -3.0090 N.pl3 1 <1>  -0.8650 
 14 C       -8.4540    -0.2370    -3.2410 C.3   1 <1>   0.3530 
 15 C       -9.3980    -0.2210    -2.0500 C.ar  1 <1>  -0.1430 
 16 C       -9.1750     0.6540    -0.9990 C.ar  1 <1>  -0.1500 
 17 C      -10.4730    -1.0910    -1.9810 C.ar  1 <1>  -0.1500 
 18 C       -9.9810     0.6540     0.1250 C.ar  1 <1>   0.0830 
 19 C      -11.2950    -1.1010    -0.8680 C.ar  1 <1>  -0.1500 
 20 O       -9.6180     1.5540     1.0820 O.3   1 <1>  -0.3630 
 21 C      -11.0580    -0.2430     0.2050 C.ar  1 <1>   0.0830 
 22 C      -10.5890     2.1850     1.8900 C.3   1 <1>   0.0400 
 23 O      -11.8340    -0.2750     1.3270 O.3   1 <1>  -0.3630 
 24 C      -12.9470    -1.1320     1.4530 C.3   1 <1>   0.0400 
 25 H       -3.9050    -2.3470     3.6030 H     1 <1>   0.0800 
 26 H       -2.4650    -2.5180     2.6220 H     1 <1>   0.0800 
 27 H       -3.7320    -3.7130     2.5330 H     1 <1>   0.0800 
 28 H       -4.1540     2.0100    -0.6420 H     1 <1>   0.0800 
 29 H       -3.9990     2.2410     1.0780 H     1 <1>   0.0800 
 30 H       -5.5810     2.1740     0.3520 H     1 <1>   0.0800 
 31 H       -6.4710    -3.2110    -1.4130 H     1 <1>   0.4500 
 32 H       -7.8850    -2.2270    -3.0890 H     1 <1>   0.4000 
 33 H       -9.0000    -0.4380    -4.1480 H     1 <1>   0.0800 
 34 H       -7.9630     0.7170    -3.3500 H     1 <1>   0.0800 
 35 H       -8.3610     1.3560    -1.0340 H     1 <1>   0.1500 
 36 H      -10.6790    -1.7710    -2.7910 H     1 <1>   0.1500 
 37 H      -12.1160    -1.7930    -0.8560 H     1 <1>   0.1500 
 38 H      -10.1610     3.0870     2.2880 H     1 <1>   0.0800 
 39 H      -10.8550     1.5240     2.6950 H     1 <1>   0.0800 
 40 H      -11.4500     2.4190     1.2890 H     1 <1>   0.0800 
 41 H      -13.3960    -0.9570     2.4140 H     1 <1>   0.0800 
 42 H      -12.6140    -2.1530     1.3890 H     1 <1>   0.0800 
 43 H      -13.6540    -0.9050     0.6740 H     1 <1>   0.0800 
@<TRIPOS>BOND
  1   1   2  1   
  2   2   3  1   
  3   2   4  2   
  4   3   5  2   
  5   3   6  1   
  6   4   7  1   
  7   4   8  1   
  8   5   9  1   
  9   6  25  1   
 10   6  26  1   
 11   6  27  1   
 12   7   9  ar  
 13   7  10  1   
 14   8  28  1   
 15   8  29  1   
 16   8  30  1   
 17   9  11  ar  
 18  10  12  2   
 19  11  12  1   
 20  11  31  1   
 21  12  13  1   
 22  13  14  1   
 23  13  32  1   
 24  14  15  1   
 25  14  33  1   
 26  14  34  1   
 27  15  16  ar  
 28  15  17  ar  
 29  16  18  ar  
 30  16  35  1   
 31  17  19  ar  
 32  17  36  1   
 33  18  20  1   
 34  18  21  ar  
 35  19  21  ar  
 36  19  37  1   
 37  20  22  1   
 38  21  23  1   
 39  22  38  1   
 40  22  39  1   
 41  22  40  1   
 42  23  24  1   
 43  24  41  1   
 44  24  42  1   
 45  24  43  1   
@<TRIPOS>SUBSTRUCTURE
  1 ****  10 GROUP 4 **** **** 0

# MOE 2024.06 (io_trps.svl 2023.06)
