@<TRIPOS>MOLECULE
7-(3-Chloro-benzyl)-3-methyl-8-morpholin-4-ylmethyl-3,7-dihydro-purine-2,6-dione
48 51 1 0 0 
SMALL
USER_CHARGES


@<TRIPOS>ATOM
  1 CL       0.3490    -2.7050     2.8900 Cl    1 <1>  -0.1770 
  2 C        0.0850    -3.1410     1.2230 C.ar  1 <1>   0.1770 
  3 C       -1.1520    -3.6250     0.8430 C.ar  1 <1>  -0.1500 
  4 C        1.1150    -3.0050     0.3130 C.ar  1 <1>  -0.1500 
  5 C       -1.3690    -3.9940    -0.4790 C.ar  1 <1>  -0.1440 
  6 C        0.8980    -3.3600    -1.0070 C.ar  1 <1>  -0.1500 
  7 C       -0.3380    -3.8500    -1.4000 C.ar  1 <1>  -0.1500 
  8 C       -2.7190    -4.5510    -0.9050 C.3   1 <1>   0.4980 
  9 N       -2.9640    -5.8970    -0.2980 N.pl3 1 <1>  -0.7640 
 10 C       -4.2580    -6.3840    -0.0790 C.2   1 <1>   0.2770 
 11 C       -2.1220    -6.8430     0.1280 C.cat 1 <1>   0.6560 
 12 C       -5.5860    -5.8990    -0.3310 C.2   1 <1>   0.7030 
 13 C       -4.1300    -7.6080     0.4920 C.2   1 <1>   0.4260 
 14 N       -2.8090    -7.8720     0.6110 N.pl3 1 <1>  -0.7000 
 15 C       -0.5810    -6.8830     0.1170 C.3   1 <1>   0.2540 
 16 O       -5.8150    -4.8250    -0.8480 O.2   1 <1>  -0.5700 
 17 N       -6.6300    -6.7040     0.0270 N.am  1 <1>  -0.4900 
 18 N       -5.2020    -8.4100     0.8570 N.am  1 <1>  -0.4360 
 19 N       -0.0580    -8.2670     0.2900 N.3   1 <1>  -0.8100 
 20 C       -6.4780    -7.9330     0.6010 C.2   1 <1>   0.6900 
 21 C       -4.9890    -9.7410     1.4960 C.3   1 <1>   0.0600 
 22 C       -0.0800    -9.0240    -0.9860 C.3   1 <1>   0.1100 
 23 C        1.3290    -8.2430     0.8090 C.3   1 <1>   0.1100 
 24 O       -7.4690    -8.5710     0.8650 O.2   1 <1>  -0.5700 
 25 C        0.5340   -10.4250    -0.8130 C.3   1 <1>   0.1200 
 26 C        1.9110    -9.6640     0.9210 C.3   1 <1>   0.1200 
 27 O        1.8320   -10.3170    -0.3130 O.3   1 <1>  -0.5600 
 28 H       -1.9280    -3.7070     1.5850 H     1 <1>   0.1500 
 29 H        2.0680    -2.6220     0.6340 H     1 <1>   0.1500 
 30 H        1.6910    -3.2500    -1.7280 H     1 <1>   0.1500 
 31 H       -0.4820    -4.1130    -2.4360 H     1 <1>   0.1500 
 32 H       -2.7740    -4.6270    -1.9780 H     1 <1>   0.0800 
 33 H       -3.4840    -3.8630    -0.5860 H     1 <1>   0.0800 
 34 H       -2.3290    -8.7020     0.9760 H     1 <1>   0.4500 
 35 H       -0.2370    -6.2700     0.9310 H     1 <1>   0.0800 
 36 H       -0.2050    -6.4660    -0.8000 H     1 <1>   0.0800 
 37 H       -7.5800    -6.3840    -0.1480 H     1 <1>   0.3700 
 38 H       -4.2650    -9.6600     2.2870 H     1 <1>   0.0800 
 39 H       -4.6410   -10.4460     0.7610 H     1 <1>   0.0800 
 40 H       -5.9080   -10.1130     1.9180 H     1 <1>   0.0800 
 41 H        0.4850    -8.5000    -1.7400 H     1 <1>   0.0800 
 42 H       -1.0910    -9.1300    -1.3390 H     1 <1>   0.0800 
 43 H        1.3450    -7.7860     1.7840 H     1 <1>   0.0800 
 44 H        1.9620    -7.6650     0.1570 H     1 <1>   0.0800 
 45 H        0.5910   -10.9300    -1.7610 H     1 <1>   0.0800 
 46 H       -0.0490   -11.0220    -0.1350 H     1 <1>   0.0800 
 47 H        1.3750   -10.2420     1.6530 H     1 <1>   0.0800 
 48 H        2.9480    -9.6230     1.2030 H     1 <1>   0.0800 
@<TRIPOS>BOND
  1   1   2  1   
  2   2   3  ar  
  3   2   4  ar  
  4   3   5  ar  
  5   3  28  1   
  6   4   6  ar  
  7   4  29  1   
  8   5   7  ar  
  9   5   8  1   
 10   6   7  ar  
 11   6  30  1   
 12   7  31  1   
 13   8   9  1   
 14   8  32  1   
 15   8  33  1   
 16   9  10  1   
 17   9  11  ar  
 18  10  12  1   
 19  10  13  2   
 20  11  14  ar  
 21  11  15  1   
 22  12  16  2   
 23  12  17  am  
 24  13  14  1   
 25  13  18  1   
 26  14  34  1   
 27  15  19  1   
 28  15  35  1   
 29  15  36  1   
 30  17  20  am  
 31  17  37  1   
 32  18  20  am  
 33  18  21  1   
 34  19  22  1   
 35  19  23  1   
 36  20  24  2   
 37  21  38  1   
 38  21  39  1   
 39  21  40  1   
 40  22  25  1   
 41  22  41  1   
 42  22  42  1   
 43  23  26  1   
 44  23  43  1   
 45  23  44  1   
 46  25  27  1   
 47  25  45  1   
 48  25  46  1   
 49  26  27  1   
 50  26  47  1   
 51  26  48  1   
@<TRIPOS>SUBSTRUCTURE
  1 ****  11 GROUP 4 **** **** 0

# MOE 2024.06 (io_trps.svl 2023.06)
