@<TRIPOS>MOLECULE
1-[1-(2-Fluoro-phenyl)-ethyl]-1H-[1,2,3]triazole-4-carboxylic acid [3-(3-methyl-
47 49 1 0 0 
SMALL
USER_CHARGES


@<TRIPOS>ATOM
  1 F       -1.7000    -0.5110     2.0200 F     1 <1>  -0.1900 
  2 C       -1.7760    -1.3190     0.9960 C.ar  1 <1>   0.1900 
  3 C       -2.7790    -1.1370     0.0540 C.ar  1 <1>  -0.1440 
  4 C       -0.8360    -2.3280     0.9010 C.ar  1 <1>  -0.1500 
  5 C       -2.8190    -2.0170    -1.0210 C.ar  1 <1>  -0.1500 
  6 C       -3.7980    -0.0050     0.1950 C.3   1 <1>   0.3190 
  7 C       -0.8940    -3.1940    -0.1760 C.ar  1 <1>  -0.1500 
  8 C       -1.8850    -3.0360    -1.1330 C.ar  1 <1>  -0.1500 
  9 N       -5.1890    -0.5290     0.0580 N.pl3 1 <1>   0.3140 
 10 C       -3.4950     1.1180    -0.8110 C.3   1 <1>  -0.2400 
 11 N       -5.9000    -0.5220    -1.0800 N.2   1 <1>  -0.4180 
 12 C       -5.9250    -1.0750     1.0220 C.2   1 <1>  -0.3020 
 13 N       -7.0490    -1.0450    -0.8480 N.2   1 <1>  -0.2270 
 14 C       -7.1090    -1.4040     0.4540 C.2   1 <1>   0.1410 
 15 C       -8.2760    -2.0240     1.0510 C.2   1 <1>   0.7160 
 16 O       -8.3010    -2.3110     2.2350 O.2   1 <1>  -0.5700 
 17 N       -9.3770    -2.2950     0.2860 N.am  1 <1>  -0.7300 
 18 C      -10.6380    -2.9070     0.7470 C.3   1 <1>   0.1400 
 19 C      -11.7770    -1.9140     0.5320 C.3   1 <1>  -0.1600 
 20 C      -13.0960    -2.4750     1.0760 C.3   1 <1>   0.0960 
 21 N      -14.2080    -1.5490     0.7970 N.pl3 1 <1>   0.3140 
 22 N      -14.9590    -1.6610    -0.3130 N.2   1 <1>  -0.7070 
 23 C      -14.6140    -0.5150     1.5600 C.2   1 <1>  -0.3020 
 24 C      -15.8230    -0.6990    -0.2290 C.2   1 <1>   0.1080 
 25 C      -15.6580     0.0560     0.9250 C.2   1 <1>  -0.1500 
 26 C      -16.8730    -0.4620    -1.2880 C.3   1 <1>  -0.0590 
 27 H       -0.0770    -2.4310     1.6550 H     1 <1>   0.1500 
 28 H       -3.5780    -1.9180    -1.7800 H     1 <1>   0.1500 
 29 H       -3.7320     0.4160     1.1810 H     1 <1>   0.0800 
 30 H       -0.1730    -3.9880    -0.2720 H     1 <1>   0.1500 
 31 H       -1.9310    -3.7100    -1.9710 H     1 <1>   0.1500 
 32 H       -3.5380     0.7470    -1.8190 H     1 <1>   0.0800 
 33 H       -2.5080     1.5060    -0.6340 H     1 <1>   0.0800 
 34 H       -4.2030     1.9200    -0.6980 H     1 <1>   0.0800 
 35 H       -5.5990    -1.2100     2.0360 H     1 <1>   0.1500 
 36 H       -9.3240    -2.0320    -0.7020 H     1 <1>   0.3700 
 37 H      -10.5610    -3.1620     1.7920 H     1 <1>   0.0800 
 38 H      -10.8180    -3.8110     0.1890 H     1 <1>   0.0800 
 39 H      -11.8860    -1.7180    -0.5210 H     1 <1>   0.0800 
 40 H      -11.5480    -0.9950     1.0430 H     1 <1>   0.0800 
 41 H      -13.0340    -2.6250     2.1380 H     1 <1>   0.0800 
 42 H      -13.3230    -3.4140     0.6050 H     1 <1>   0.0800 
 43 H      -14.1470    -0.2500     2.4900 H     1 <1>   0.1500 
 44 H      -16.2480     0.9050     1.2220 H     1 <1>   0.1500 
 45 H      -17.4850    -1.3390    -1.3870 H     1 <1>   0.0800 
 46 H      -16.3940    -0.2630    -2.2290 H     1 <1>   0.0800 
 47 H      -17.4930     0.3740    -1.0220 H     1 <1>   0.0800 
@<TRIPOS>BOND
  1   1   2  1   
  2   2   3  ar  
  3   2   4  ar  
  4   3   5  ar  
  5   3   6  1   
  6   4   7  ar  
  7   4  27  1   
  8   5   8  ar  
  9   5  28  1   
 10   6   9  1   
 11   6  10  1   
 12   6  29  1   
 13   7   8  ar  
 14   7  30  1   
 15   8  31  1   
 16   9  11  1   
 17   9  12  1   
 18  10  32  1   
 19  10  33  1   
 20  10  34  1   
 21  11  13  2   
 22  12  14  2   
 23  12  35  1   
 24  13  14  1   
 25  14  15  1   
 26  15  16  2   
 27  15  17  am  
 28  17  18  1   
 29  17  36  1   
 30  18  19  1   
 31  18  37  1   
 32  18  38  1   
 33  19  20  1   
 34  19  39  1   
 35  19  40  1   
 36  20  21  1   
 37  20  41  1   
 38  20  42  1   
 39  21  22  1   
 40  21  23  1   
 41  22  24  2   
 42  23  25  2   
 43  23  43  1   
 44  24  25  1   
 45  24  26  1   
 46  25  44  1   
 47  26  45  1   
 48  26  46  1   
 49  26  47  1   
@<TRIPOS>SUBSTRUCTURE
  1 ****  14 GROUP 4 **** **** 0

# MOE 2024.06 (io_trps.svl 2023.06)
