@<TRIPOS>MOLECULE
1-(4-Chloro-2,5-dimethoxy-benzenesulfonyl)-piperidine-4-carboxylic acid amide
42 43 1 0 0 
SMALL
USER_CHARGES


@<TRIPOS>ATOM
  1 CL      -1.2780     0.0080    -2.8730 Cl    1 <1>  -0.1770 
  2 C       -2.5760     0.0290    -1.6990 C.ar  1 <1>   0.1770 
  3 C       -2.9950    -1.1460    -1.0870 C.ar  1 <1>   0.0820 
  4 C       -3.1690     1.2370    -1.4020 C.ar  1 <1>  -0.1500 
  5 O       -2.3720    -2.3090    -1.4250 O.3   1 <1>  -0.3630 
  6 C       -4.0320    -1.0790    -0.1600 C.ar  1 <1>  -0.1500 
  7 C       -4.1960     1.2810    -0.4720 C.ar  1 <1>   0.0830 
  8 C       -2.7430    -3.5420    -0.8490 C.3   1 <1>   0.0400 
  9 C       -4.6440     0.1270     0.1710 C.ar  1 <1>  -0.0090 
 10 O       -4.7760     2.4740    -0.2270 O.3   1 <1>  -0.3630 
 11 S       -5.9930     0.1450     1.3870 S.o2  1 <1>   1.4470 
 12 C       -4.0600     3.3670     0.5980 C.3   1 <1>   0.0400 
 13 O       -5.8470    -1.0360     2.2110 O.2   1 <1>  -0.6500 
 14 O       -6.1320     1.4180     2.0630 O.2   1 <1>  -0.6500 
 15 N       -7.4020    -0.0840     0.4680 N.am  1 <1>  -0.8490 
 16 C       -7.7350     1.0990    -0.3340 C.3   1 <1>   0.1960 
 17 C       -8.5210    -0.4840     1.3260 C.3   1 <1>   0.1960 
 18 C       -8.9450     0.8200    -1.2280 C.3   1 <1>  -0.1600 
 19 C       -9.7570    -0.8120     0.4850 C.3   1 <1>  -0.1600 
 20 C      -10.1610     0.3770    -0.4000 C.3   1 <1>  -0.0190 
 21 C      -11.3560     0.0360    -1.2870 C.2   1 <1>   0.5690 
 22 O      -11.2710    -0.8190    -2.1290 O.2   1 <1>  -0.5700 
 23 N      -12.5170     0.6980    -1.1240 N.am  1 <1>  -0.8000 
 24 H       -2.8400     2.1320    -1.8960 H     1 <1>   0.1500 
 25 H       -4.3870    -1.9700     0.3270 H     1 <1>   0.1500 
 26 H       -2.1140    -4.3070    -1.2670 H     1 <1>   0.0800 
 27 H       -3.7720    -3.7460    -1.0900 H     1 <1>   0.0800 
 28 H       -2.5970    -3.4910     0.2150 H     1 <1>   0.0800 
 29 H       -4.6610     4.2470     0.7410 H     1 <1>   0.0800 
 30 H       -3.1320     3.6270     0.1210 H     1 <1>   0.0800 
 31 H       -3.8770     2.8940     1.5480 H     1 <1>   0.0800 
 32 H       -6.9040     1.3550    -0.9680 H     1 <1>   0.0800 
 33 H       -7.9380     1.9390     0.3110 H     1 <1>   0.0800 
 34 H       -8.7440     0.3050     2.0260 H     1 <1>   0.0800 
 35 H       -8.2530    -1.3640     1.8890 H     1 <1>   0.0800 
 36 H       -8.6830     0.0500    -1.9350 H     1 <1>   0.0800 
 37 H       -9.1880     1.7070    -1.7860 H     1 <1>   0.0800 
 38 H      -10.5720    -1.0740     1.1350 H     1 <1>   0.0800 
 39 H       -9.5400    -1.6680    -0.1310 H     1 <1>   0.0800 
 40 H      -10.4410     1.1920     0.2420 H     1 <1>   0.0800 
 41 H      -13.3060     0.4570    -1.7250 H     1 <1>   0.3700 
 42 H      -12.6730     1.4330    -0.4370 H     1 <1>   0.3700 
@<TRIPOS>BOND
  1   1   2  1   
  2   2   3  ar  
  3   2   4  ar  
  4   3   5  1   
  5   3   6  ar  
  6   4   7  ar  
  7   4  24  1   
  8   5   8  1   
  9   6   9  ar  
 10   6  25  1   
 11   7   9  ar  
 12   7  10  1   
 13   8  26  1   
 14   8  27  1   
 15   8  28  1   
 16   9  11  1   
 17  10  12  1   
 18  11  13  2   
 19  11  14  2   
 20  11  15  am  
 21  12  29  1   
 22  12  30  1   
 23  12  31  1   
 24  15  16  1   
 25  15  17  1   
 26  16  18  1   
 27  16  32  1   
 28  16  33  1   
 29  17  19  1   
 30  17  34  1   
 31  17  35  1   
 32  18  20  1   
 33  18  36  1   
 34  18  37  1   
 35  19  20  1   
 36  19  38  1   
 37  19  39  1   
 38  20  21  1   
 39  20  40  1   
 40  21  22  2   
 41  21  23  am  
 42  23  41  1   
 43  23  42  1   
@<TRIPOS>SUBSTRUCTURE
  1 ****  15 GROUP 4 **** **** 0

# MOE 2024.06 (io_trps.svl 2023.06)
