@<TRIPOS>MOLECULE
8-(3-Hydroxy-propyl)-1,3,7-trimethyl-1H,8H-imidazo[2,1-f]purine-2,4-dione
39 41 1 0 0 
SMALL
USER_CHARGES


@<TRIPOS>ATOM
  1 O        0.6910     0.0640    -0.0880 O.2   1 <1>  -0.5760 
  2 C        1.6810     0.7620    -0.0030 C.2   1 <1>   0.6850 
  3 N        1.5530     2.1480     0.0550 N.am  1 <1>  -0.4270 
  4 N        2.9410     0.1750     0.0260 N.am  1 <1>  -0.4430 
  5 C        2.6700     2.9730     0.0790 C.2   1 <1>   0.6980 
  6 C        0.1840     2.7520     0.0460 C.3   1 <1>   0.0500 
  7 C        4.0450     1.0020     0.0540 C.2   1 <1>   0.4190 
  8 C        3.0920    -1.3110    -0.0110 C.3   1 <1>   0.0500 
  9 O        2.5590     4.1870     0.0950 O.2   1 <1>  -0.5760 
 10 C        3.9540     2.3530     0.0810 C.2   1 <1>   0.2680 
 11 N        5.3630     0.6420     0.0530 N.pl3 1 <1>  -0.7050 
 12 N        5.2710     2.8360     0.1000 N.pl3 1 <1>  -0.6350 
 13 C        6.0730     1.7790     0.0810 C.cat 1 <1>   1.0680 
 14 C        6.0730     3.9570     0.1260 C.2   1 <1>   0.2200 
 15 N        7.3680     2.1440     0.0950 N.pl3 1 <1>  -0.5730 
 16 C        7.3560     3.5330     0.1230 C.2   1 <1>   0.1550 
 17 C        8.6080     1.3140     0.0840 C.3   1 <1>   0.1580 
 18 C        8.6290     4.3600     0.1460 C.3   1 <1>  -0.1120 
 19 C        8.3060    -0.1840     0.0520 C.3   1 <1>  -0.1700 
 20 C        9.5800    -1.0210     0.0420 C.3   1 <1>   0.1100 
 21 O        9.1730    -2.3370     0.0130 O.3   1 <1>  -0.6850 
 22 H       -0.4980     2.1370     0.6080 H     1 <1>   0.0700 
 23 H       -0.1700     2.8270    -0.9670 H     1 <1>   0.0700 
 24 H        0.1930     3.7330     0.4890 H     1 <1>   0.0700 
 25 H        2.2070    -1.7890     0.3750 H     1 <1>   0.0700 
 26 H        3.9260    -1.6200     0.5920 H     1 <1>   0.0700 
 27 H        3.2410    -1.6340    -1.0260 H     1 <1>   0.0700 
 28 H        5.7660    -0.2930     0.0270 H     1 <1>   0.4430 
 29 H        5.6690     4.9590     0.1440 H     1 <1>   0.1400 
 30 H        9.1870     1.5420     0.9640 H     1 <1>   0.0700 
 31 H        9.1950     1.5770    -0.7810 H     1 <1>   0.0700 
 32 H        9.2110     4.1250     1.0190 H     1 <1>   0.0700 
 33 H        8.3940     5.4090     0.1660 H     1 <1>   0.0700 
 34 H        9.2190     4.1610    -0.7310 H     1 <1>   0.0700 
 35 H        7.7550    -0.4190    -0.8420 H     1 <1>   0.0700 
 36 H        7.7450    -0.4550     0.9290 H     1 <1>   0.0700 
 37 H       10.1660    -0.8640     0.9320 H     1 <1>   0.0700 
 38 H       10.1760    -0.8280    -0.8350 H     1 <1>   0.0700 
 39 H        9.9450    -2.9400     0.0050 H     1 <1>   0.3920 
@<TRIPOS>BOND
  1   1   2  2   
  2   2   3  am  
  3   2   4  am  
  4   3   5  am  
  5   3   6  1   
  6   4   7  1   
  7   4   8  1   
  8   5   9  2   
  9   5  10  1   
 10   6  22  1   
 11   6  23  1   
 12   6  24  1   
 13   7  10  2   
 14   7  11  1   
 15   8  25  1   
 16   8  26  1   
 17   8  27  1   
 18  10  12  1   
 19  11  13  ar  
 20  11  28  1   
 21  12  13  ar  
 22  12  14  1   
 23  13  15  ar  
 24  14  16  2   
 25  14  29  1   
 26  15  16  1   
 27  15  17  1   
 28  16  18  1   
 29  17  19  1   
 30  17  30  1   
 31  17  31  1   
 32  18  32  1   
 33  18  33  1   
 34  18  34  1   
 35  19  20  1   
 36  19  35  1   
 37  19  36  1   
 38  20  21  1   
 39  20  37  1   
 40  20  38  1   
 41  21  39  1   
@<TRIPOS>SUBSTRUCTURE
  1 ****  11 GROUP 4 **** **** 0

# MOE 2024.06 (io_trps.svl 2023.06)
