@<TRIPOS>MOLECULE
Thiophene-2-carboxylic acid (2-cyclohexyl-1,2,3,4-tetrahydro-benzo[4,5]imidazo[1
52 56 1 0 0 
SMALL
USER_CHARGES


@<TRIPOS>ATOM
  1 S       -0.0190     0.5300     0.4680 S.3   1 <1>  -0.0800 
  2 C        1.6450     0.9200     0.0110 C.2   1 <1>  -0.0450 
  3 C       -0.6170     2.0760    -0.0930 C.2   1 <1>  -0.1100 
  4 C        2.6800    -0.0550     0.2530 C.2   1 <1>   0.7150 
  5 C        1.6590     2.1680    -0.5300 C.2   1 <1>  -0.1500 
  6 C        0.3910     2.8160    -0.5870 C.2   1 <1>  -0.1500 
  7 O        2.4210    -1.1660     0.6740 O.2   1 <1>  -0.5700 
  8 N        3.9840     0.3010     0.0110 N.am  1 <1>  -0.5470 
  9 C        5.1780    -0.4380     0.0930 C.ar  1 <1>   0.1170 
 10 C        6.3580     0.2280     0.3630 C.ar  1 <1>  -0.1500 
 11 C        5.2120    -1.8300    -0.1140 C.ar  1 <1>  -0.1500 
 12 C        7.5530    -0.4790     0.4360 C.ar  1 <1>   0.2270 
 13 C        6.3880    -2.5410    -0.0420 C.ar  1 <1>  -0.1500 
 14 N        8.8140    -0.0220     0.6810 N.2   1 <1>  -0.5650 
 15 C        7.5660    -1.8470     0.2410 C.ar  1 <1>  -0.1520 
 16 C        9.5460    -1.0780     0.6420 C.2   1 <1>   0.0060 
 17 N        8.8630    -2.2210     0.3840 N.pl3 1 <1>   0.0480 
 18 C       11.0470    -1.0960     0.8520 C.3   1 <1>   0.5230 
 19 C        9.4650    -3.5390     0.1320 C.3   1 <1>   0.0960 
 20 N       11.6680    -2.2610     0.1260 N.4   1 <1>  -0.9590 
 21 C       10.9550    -3.5350     0.5190 C.3   1 <1>   0.3430 
 22 C       13.1540    -2.3130     0.3140 C.3   1 <1>   0.4230 
 23 C       13.7970    -0.9970    -0.1690 C.3   1 <1>  -0.1600 
 24 C       13.7490    -3.5070    -0.4600 C.3   1 <1>  -0.1600 
 25 C       15.3300    -1.0380    -0.0980 C.3   1 <1>  -0.1600 
 26 C       15.2820    -3.5400    -0.3890 C.3   1 <1>  -0.1600 
 27 C       15.8910    -2.2260    -0.8830 C.3   1 <1>  -0.1600 
 28 H       -1.6700     2.2680     0.0080 H     1 <1>   0.1500 
 29 H        2.5330     2.6710    -0.9060 H     1 <1>   0.1500 
 30 H        0.2870     3.8070    -0.9970 H     1 <1>   0.1500 
 31 H        4.1090     1.2910    -0.1780 H     1 <1>   0.3700 
 32 H        6.3850     1.2880     0.5260 H     1 <1>   0.1500 
 33 H        4.2970    -2.3490    -0.3360 H     1 <1>   0.1500 
 34 H        6.3950    -3.6050    -0.1970 H     1 <1>   0.1500 
 35 H       11.2510    -1.1630     1.9070 H     1 <1>   0.0800 
 36 H       11.4450    -0.1630     0.4890 H     1 <1>   0.0800 
 37 H        9.3560    -3.7700    -0.9120 H     1 <1>   0.0800 
 38 H        8.9360    -4.2840     0.7000 H     1 <1>   0.0800 
 39 H       11.5020    -2.0870    -0.8740 H     1 <1>   0.4500 
 40 H       11.4180    -4.3860     0.0490 H     1 <1>   0.0800 
 41 H       11.0360    -3.6730     1.5860 H     1 <1>   0.0800 
 42 H       13.3830    -2.4400     1.3610 H     1 <1>   0.0800 
 43 H       13.4820    -0.1680     0.4380 H     1 <1>   0.0800 
 44 H       13.5110    -0.8050    -1.1890 H     1 <1>   0.0800 
 45 H       13.4580    -3.4510    -1.4950 H     1 <1>   0.0800 
 46 H       13.4010    -4.4380    -0.0520 H     1 <1>   0.0800 
 47 H       15.6470    -1.1090     0.9290 H     1 <1>   0.0800 
 48 H       15.7370    -0.1240    -0.5000 H     1 <1>   0.0800 
 49 H       15.6550    -4.3530    -0.9920 H     1 <1>   0.0800 
 50 H       15.5980    -3.7190     0.6250 H     1 <1>   0.0800 
 51 H       16.9620    -2.2600    -0.7690 H     1 <1>   0.0800 
 52 H       15.6820    -2.1000    -1.9330 H     1 <1>   0.0800 
@<TRIPOS>BOND
  1   1   2  1   
  2   1   3  1   
  3   2   4  1   
  4   2   5  2   
  5   3   6  2   
  6   3  28  1   
  7   4   7  2   
  8   4   8  am  
  9   5   6  1   
 10   5  29  1   
 11   6  30  1   
 12   8   9  1   
 13   8  31  1   
 14   9  10  ar  
 15   9  11  ar  
 16  10  12  ar  
 17  10  32  1   
 18  11  13  ar  
 19  11  33  1   
 20  12  14  1   
 21  12  15  ar  
 22  13  15  ar  
 23  13  34  1   
 24  14  16  2   
 25  15  17  1   
 26  16  17  1   
 27  16  18  1   
 28  17  19  1   
 29  18  20  1   
 30  18  35  1   
 31  18  36  1   
 32  19  21  1   
 33  19  37  1   
 34  19  38  1   
 35  20  21  1   
 36  20  22  1   
 37  20  39  1   
 38  21  40  1   
 39  21  41  1   
 40  22  23  1   
 41  22  24  1   
 42  22  42  1   
 43  23  25  1   
 44  23  43  1   
 45  23  44  1   
 46  24  26  1   
 47  24  45  1   
 48  24  46  1   
 49  25  27  1   
 50  25  47  1   
 51  25  48  1   
 52  26  27  1   
 53  26  49  1   
 54  26  50  1   
 55  27  51  1   
 56  27  52  1   
@<TRIPOS>SUBSTRUCTURE
  1 ****  12 GROUP 4 **** **** 0

# MOE 2024.06 (io_trps.svl 2023.06)
