@<TRIPOS>MOLECULE
4-[3-(4-Chloro-phenyl)-[1,2,4]oxadiazol-5-yl]-N-isopropyl-butyramide
39 40 1 0 0 
SMALL
USER_CHARGES


@<TRIPOS>ATOM
  1 CL       2.6070    -1.0320    -0.9150 Cl    1 <1>  -0.1770 
  2 C        3.4880     0.3830    -0.4040 C.ar  1 <1>   0.1770 
  3 C        3.8170     1.3530    -1.3310 C.ar  1 <1>  -0.1500 
  4 C        3.8490     0.5190     0.9220 C.ar  1 <1>  -0.1500 
  5 C        4.5180     2.4730    -0.9200 C.ar  1 <1>  -0.1500 
  6 C        4.5490     1.6440     1.3210 C.ar  1 <1>  -0.1500 
  7 C        4.9030     2.6480     0.4130 C.ar  1 <1>   0.0540 
  8 C        5.6470     3.8200     0.8440 C.2   1 <1>   0.4620 
  9 N        6.0120     4.0780     2.0500 N.2   1 <1>  -0.4100 
 10 N        6.0590     4.7640    -0.0070 N.2   1 <1>  -0.5650 
 11 O        6.6690     5.1940     2.0390 O.3   1 <1>  -0.0190 
 12 C        6.6710     5.5480     0.7810 C.2   1 <1>   0.2980 
 13 C        7.4190     6.8050     0.3700 C.3   1 <1>   0.0200 
 14 C        8.7510     6.4530    -0.3120 C.3   1 <1>  -0.1600 
 15 C        9.7580     5.7750     0.6380 C.3   1 <1>  -0.0990 
 16 C       10.8030     4.9820    -0.1270 C.2   1 <1>   0.5690 
 17 O       11.8810     5.4790    -0.3230 O.2   1 <1>  -0.5700 
 18 N       10.5360     3.7380    -0.5910 N.am  1 <1>  -0.7300 
 19 C        9.2990     2.9480    -0.4960 C.3   1 <1>   0.2200 
 20 C        9.5960     1.6880     0.3070 C.3   1 <1>  -0.2400 
 21 C        8.8350     2.6110    -1.9080 C.3   1 <1>  -0.2400 
 22 H        3.5250     1.2280    -2.3590 H     1 <1>   0.1500 
 23 H        3.5820    -0.2460     1.6280 H     1 <1>   0.1500 
 24 H        4.7710     3.2260    -1.6470 H     1 <1>   0.1500 
 25 H        4.8270     1.7470     2.3570 H     1 <1>   0.1500 
 26 H        7.5900     7.4280     1.2300 H     1 <1>   0.0800 
 27 H        6.8030     7.3520    -0.3210 H     1 <1>   0.0800 
 28 H        9.1990     7.3450    -0.7150 H     1 <1>   0.0800 
 29 H        8.5410     5.8000    -1.1420 H     1 <1>   0.0800 
 30 H        9.2740     5.1090     1.3270 H     1 <1>   0.0800 
 31 H       10.2570     6.5250     1.2250 H     1 <1>   0.0800 
 32 H       11.3040     3.2860    -1.0880 H     1 <1>   0.3700 
 33 H        8.5280     3.5090     0.0000 H     1 <1>   0.0800 
 34 H       10.3540     1.0970    -0.1740 H     1 <1>   0.0800 
 35 H        8.7030     1.0950     0.3980 H     1 <1>   0.0800 
 36 H        9.9250     1.9530     1.2960 H     1 <1>   0.0800 
 37 H        9.5780     2.0330    -2.4270 H     1 <1>   0.0800 
 38 H        8.6390     3.5150    -2.4560 H     1 <1>   0.0800 
 39 H        7.9240     2.0410    -1.8650 H     1 <1>   0.0800 
@<TRIPOS>BOND
  1   1   2  1   
  2   2   3  ar  
  3   2   4  ar  
  4   3   5  ar  
  5   3  22  1   
  6   4   6  ar  
  7   4  23  1   
  8   5   7  ar  
  9   5  24  1   
 10   6   7  ar  
 11   6  25  1   
 12   7   8  1   
 13   8   9  2   
 14   8  10  1   
 15   9  11  1   
 16  10  12  2   
 17  11  12  1   
 18  12  13  1   
 19  13  14  1   
 20  13  26  1   
 21  13  27  1   
 22  14  15  1   
 23  14  28  1   
 24  14  29  1   
 25  15  16  1   
 26  15  30  1   
 27  15  31  1   
 28  16  17  2   
 29  16  18  am  
 30  18  19  1   
 31  18  32  1   
 32  19  20  1   
 33  19  21  1   
 34  19  33  1   
 35  20  34  1   
 36  20  35  1   
 37  20  36  1   
 38  21  37  1   
 39  21  38  1   
 40  21  39  1   
@<TRIPOS>SUBSTRUCTURE
  1 ****   8 GROUP 4 **** **** 0

# MOE 2024.06 (io_trps.svl 2023.06)
