@<TRIPOS>MOLECULE
8,9,10,11-Tetrahydro-7H-6-thia-1,3,3a,5-tetraaza-cyclohepta[b]-as-indacene
29 32 1 0 0 
SMALL
USER_CHARGES


@<TRIPOS>ATOM
  1 S        0.2260    -0.5800     0.0600 S.3   1 <1>  -0.0800 
  2 C        1.4840     0.6150    -0.1740 C.2   1 <1>   0.1660 
  3 C       -0.9810     0.6770     0.3140 C.2   1 <1>  -0.1400 
  4 N        2.7770     0.2610    -0.4320 N.2   1 <1>  -0.5760 
  5 C        0.9820     1.8830    -0.0570 C.2   1 <1>  -0.0010 
  6 C       -0.4330     1.9060     0.2170 C.2   1 <1>  -0.1810 
  7 C       -2.3930     0.2120     0.6120 C.3   1 <1>   0.0200 
  8 C        3.5830     1.2640    -0.5720 C.2   1 <1>   0.3990 
  9 C        1.9150     2.9480    -0.2170 C.2   1 <1>   0.1870 
 10 C       -1.1580     3.2410     0.3650 C.3   1 <1>   0.0210 
 11 C       -3.4390     0.8010    -0.3480 C.3   1 <1>  -0.1600 
 12 N        3.2010     2.6050    -0.4750 N.pl3 1 <1>   0.5610 
 13 N        1.7900     4.2440    -0.1630 N.2   1 <1>  -0.5650 
 14 C       -2.6920     3.1530     0.4600 C.3   1 <1>  -0.1600 
 15 C       -3.3050     2.3040    -0.6670 C.3   1 <1>  -0.1600 
 16 N        3.9250     3.7250    -0.5910 N.2   1 <1>  -0.7070 
 17 C        3.0370     4.6470    -0.3970 C.2   1 <1>   0.3660 
 18 H       -2.6310     0.4890     1.6230 H     1 <1>   0.0800 
 19 H       -2.4400    -0.8620     0.5610 H     1 <1>   0.0800 
 20 H        4.6240     1.0950    -0.7790 H     1 <1>   0.0600 
 21 H       -0.9170     3.8450    -0.4920 H     1 <1>   0.0800 
 22 H       -0.7780     3.7510     1.2330 H     1 <1>   0.0800 
 23 H       -4.4100     0.6240     0.0790 H     1 <1>   0.0800 
 24 H       -3.3980     0.2580    -1.2760 H     1 <1>   0.0800 
 25 H       -3.0770     4.1550     0.3820 H     1 <1>   0.0800 
 26 H       -2.9880     2.7790     1.4240 H     1 <1>   0.0800 
 27 H       -4.2850     2.6840    -0.8970 H     1 <1>   0.0800 
 28 H       -2.7100     2.4230    -1.5580 H     1 <1>   0.0800 
 29 H        3.2770     5.6990    -0.4210 H     1 <1>   0.1500 
@<TRIPOS>BOND
  1   1   2  1   
  2   1   3  1   
  3   2   4  1   
  4   2   5  2   
  5   3   6  2   
  6   3   7  1   
  7   4   8  2   
  8   5   6  1   
  9   5   9  1   
 10   6  10  1   
 11   7  11  1   
 12   7  18  1   
 13   7  19  1   
 14   8  12  1   
 15   8  20  1   
 16   9  12  1   
 17   9  13  2   
 18  10  14  1   
 19  10  21  1   
 20  10  22  1   
 21  11  15  1   
 22  11  23  1   
 23  11  24  1   
 24  12  16  1   
 25  13  17  1   
 26  14  15  1   
 27  14  25  1   
 28  14  26  1   
 29  15  27  1   
 30  15  28  1   
 31  16  17  2   
 32  17  29  1   
@<TRIPOS>SUBSTRUCTURE
  1 ****   5 GROUP 4 **** **** 0

# MOE 2024.06 (io_trps.svl 2023.06)
