@<TRIPOS>MOLECULE
5-(4-Fluoro-phenoxymethyl)-furan-2-carboxylic acid (tetrahydro-furan-2-ylmethyl)
41 43 1 0 0 
SMALL
USER_CHARGES


@<TRIPOS>ATOM
  1 F       -0.6690     1.0250    -1.4430 F     1 <1>  -0.1900 
  2 C       -1.4900     1.9510    -1.0230 C.ar  1 <1>   0.1900 
  3 C       -2.7220     2.0760    -1.6370 C.ar  1 <1>  -0.1500 
  4 C       -1.0960     2.7690     0.0180 C.ar  1 <1>  -0.1500 
  5 C       -3.5930     3.0580    -1.1910 C.ar  1 <1>  -0.1500 
  6 C       -1.9720     3.7470     0.4570 C.ar  1 <1>  -0.1500 
  7 C       -3.2180     3.8980    -0.1410 C.ar  1 <1>   0.0830 
  8 O       -4.0070     4.8820     0.3550 O.3   1 <1>  -0.3630 
  9 C       -5.2930     5.1290    -0.1790 C.3   1 <1>   0.3000 
 10 C       -5.9450     6.2790     0.5670 C.2   1 <1>  -0.0400 
 11 O       -7.1490     6.6590     0.2040 O.3   1 <1>  -0.2800 
 12 C       -5.5100     7.0380     1.5960 C.2   1 <1>  -0.1500 
 13 C       -7.5430     7.6690     0.9760 C.2   1 <1>   0.0550 
 14 C       -6.5430     7.9350     1.8640 C.2   1 <1>  -0.1500 
 15 C       -8.8440     8.2790     0.7930 C.2   1 <1>   0.7150 
 16 O       -9.7840     7.6660     0.3280 O.2   1 <1>  -0.5700 
 17 N       -9.1080     9.5730     1.1250 N.am  1 <1>  -0.7300 
 18 C       -8.1640    10.7230     1.0900 C.3   1 <1>   0.1400 
 19 C       -8.4450    11.6340    -0.1120 C.3   1 <1>   0.2000 
 20 O       -7.6280    12.7530    -0.0330 O.3   1 <1>  -0.5600 
 21 C       -9.8550    12.2090    -0.1720 C.3   1 <1>  -0.1600 
 22 C       -8.1550    13.7890    -0.7990 C.3   1 <1>   0.1200 
 23 C       -9.6550    13.5230    -0.9090 C.3   1 <1>  -0.1600 
 24 H       -2.9890     1.4180    -2.4440 H     1 <1>   0.1500 
 25 H       -0.1290     2.6410     0.4710 H     1 <1>   0.1500 
 26 H       -4.5480     3.1490    -1.6730 H     1 <1>   0.1500 
 27 H       -1.6960     4.4010     1.2650 H     1 <1>   0.1500 
 28 H       -5.8860     4.2400    -0.0680 H     1 <1>   0.0800 
 29 H       -5.1880     5.3810    -1.2190 H     1 <1>   0.0800 
 30 H       -4.5700     6.9770     2.1160 H     1 <1>   0.1500 
 31 H       -6.5290     8.6810     2.6390 H     1 <1>   0.1500 
 32 H      -10.0930     9.8200     1.0150 H     1 <1>   0.3700 
 33 H       -7.1500    10.3740     1.0200 H     1 <1>   0.0800 
 34 H       -8.2720    11.2900     1.9990 H     1 <1>   0.0800 
 35 H       -8.2030    11.1260    -1.0310 H     1 <1>   0.0800 
 36 H      -10.2160    12.3970     0.8240 H     1 <1>   0.0800 
 37 H      -10.5340    11.5490    -0.6820 H     1 <1>   0.0800 
 38 H       -7.6810    13.7680    -1.7650 H     1 <1>   0.0800 
 39 H       -7.9420    14.7210    -0.3040 H     1 <1>   0.0800 
 40 H      -10.2250    14.3200    -0.4640 H     1 <1>   0.0800 
 41 H       -9.9290    13.4320    -1.9450 H     1 <1>   0.0800 
@<TRIPOS>BOND
  1   1   2  1   
  2   2   3  ar  
  3   2   4  ar  
  4   3   5  ar  
  5   3  24  1   
  6   4   6  ar  
  7   4  25  1   
  8   5   7  ar  
  9   5  26  1   
 10   6   7  ar  
 11   6  27  1   
 12   7   8  1   
 13   8   9  1   
 14   9  10  1   
 15   9  28  1   
 16   9  29  1   
 17  10  11  1   
 18  10  12  2   
 19  11  13  1   
 20  12  14  1   
 21  12  30  1   
 22  13  14  2   
 23  13  15  1   
 24  14  31  1   
 25  15  16  2   
 26  15  17  am  
 27  17  18  1   
 28  17  32  1   
 29  18  19  1   
 30  18  33  1   
 31  18  34  1   
 32  19  20  1   
 33  19  21  1   
 34  19  35  1   
 35  20  22  1   
 36  21  23  1   
 37  21  36  1   
 38  21  37  1   
 39  22  23  1   
 40  22  38  1   
 41  22  39  1   
 42  23  40  1   
 43  23  41  1   
@<TRIPOS>SUBSTRUCTURE
  1 ****  10 GROUP 4 **** **** 0

# MOE 2024.06 (io_trps.svl 2023.06)
