@<TRIPOS>MOLECULE
2-(1-Bicyclo[2.2.1]hept-2-yl-1H-tetrazol-5-ylsulfanyl)-N-p-tolyl-acetamide
45 48 1 0 0 
SMALL
USER_CHARGES


@<TRIPOS>ATOM
  1 S        0.5560     0.0770     0.1230 S.3   1 <1>  -0.2860 
  2 C       -0.6980    -1.1290     0.5820 C.2   1 <1>   0.2420 
  3 C       -0.1360     1.6730     0.7860 C.3   1 <1>   0.1310 
  4 N       -1.7530    -0.8170     1.2260 N.2   1 <1>  -0.3380 
  5 N       -0.6670    -2.4170     0.2790 N.pl3 1 <1>   0.3140 
  6 C        0.8190     2.8360     0.5670 C.2   1 <1>   0.5690 
  7 N       -2.4340    -1.9550     1.3170 N.2   1 <1>   0.0000 
  8 N       -1.8040    -2.9180     0.7370 N.2   1 <1>  -0.4180 
  9 C        0.3260    -3.1760    -0.5400 C.3   1 <1>   0.1760 
 10 O        0.3510     3.9470     0.5550 O.2   1 <1>  -0.5700 
 11 N        2.1520     2.5680     0.3990 N.am  1 <1>  -0.5470 
 12 C        0.2060    -4.7190    -0.4810 C.3   1 <1>  -0.0800 
 13 C        1.8060    -2.9490    -0.1540 C.3   1 <1>  -0.1600 
 14 C        3.2620     3.4090     0.2190 C.ar  1 <1>   0.1170 
 15 C        1.5410    -5.1180    -1.0930 C.3   1 <1>  -0.1600 
 16 C        0.3870    -5.2500     0.9580 C.3   1 <1>  -0.1600 
 17 C        2.3780    -4.3740    -0.0640 C.3   1 <1>  -0.0800 
 18 C        3.2530     4.7660     0.5260 C.ar  1 <1>  -0.1500 
 19 C        4.4380     2.8570    -0.2770 C.ar  1 <1>  -0.1500 
 20 C        1.8770    -5.0040     1.2430 C.3   1 <1>  -0.1600 
 21 C        4.3810     5.5450     0.3380 C.ar  1 <1>  -0.1500 
 22 C        5.5670     3.6340    -0.4660 C.ar  1 <1>  -0.1500 
 23 C        5.5450     4.9840    -0.1610 C.ar  1 <1>  -0.1430 
 24 C        6.7820     5.8400    -0.3650 C.3   1 <1>  -0.0970 
 25 H       -0.3170     1.5340     1.8360 H     1 <1>   0.0800 
 26 H       -1.0660     1.8530     0.2780 H     1 <1>   0.0800 
 27 H        0.1870    -2.8700    -1.5620 H     1 <1>   0.0800 
 28 H        2.3680     1.5740     0.3430 H     1 <1>   0.3700 
 29 H       -0.6560    -5.1090    -0.9950 H     1 <1>   0.0800 
 30 H        1.9200    -2.4300     0.7820 H     1 <1>   0.0800 
 31 H        2.3070    -2.4010    -0.9320 H     1 <1>   0.0800 
 32 H        1.6790    -4.7450    -2.0940 H     1 <1>   0.0800 
 33 H        1.7070    -6.1830    -1.0730 H     1 <1>   0.0800 
 34 H        0.1780    -6.3060     0.9880 H     1 <1>   0.0800 
 35 H       -0.2420    -4.7600     1.6800 H     1 <1>   0.0800 
 36 H        3.4450    -4.4370    -0.2000 H     1 <1>   0.0800 
 37 H        2.3660     5.2260     0.9190 H     1 <1>   0.1500 
 38 H        4.4740     1.8130    -0.5230 H     1 <1>   0.1500 
 39 H        2.3790    -5.9390     1.4240 H     1 <1>   0.0800 
 40 H        2.0260    -4.3570     2.0910 H     1 <1>   0.0800 
 41 H        4.3460     6.5920     0.5830 H     1 <1>   0.1500 
 42 H        6.4650     3.1840    -0.8510 H     1 <1>   0.1500 
 43 H        6.5030     6.8510    -0.6030 H     1 <1>   0.0800 
 44 H        7.3770     5.4540    -1.1730 H     1 <1>   0.0800 
 45 H        7.3730     5.8450     0.5320 H     1 <1>   0.0800 
@<TRIPOS>BOND
  1   1   2  1   
  2   1   3  1   
  3   2   4  2   
  4   2   5  1   
  5   3   6  1   
  6   3  25  1   
  7   3  26  1   
  8   4   7  1   
  9   5   8  1   
 10   5   9  1   
 11   6  10  2   
 12   6  11  am  
 13   7   8  2   
 14   9  12  1   
 15   9  13  1   
 16   9  27  1   
 17  11  14  1   
 18  11  28  1   
 19  12  15  1   
 20  12  16  1   
 21  12  29  1   
 22  13  17  1   
 23  13  30  1   
 24  13  31  1   
 25  14  18  ar  
 26  14  19  ar  
 27  15  17  1   
 28  15  32  1   
 29  15  33  1   
 30  16  20  1   
 31  16  34  1   
 32  16  35  1   
 33  17  20  1   
 34  17  36  1   
 35  18  21  ar  
 36  18  37  1   
 37  19  22  ar  
 38  19  38  1   
 39  20  39  1   
 40  20  40  1   
 41  21  23  ar  
 42  21  41  1   
 43  22  23  ar  
 44  22  42  1   
 45  23  24  1   
 46  24  43  1   
 47  24  44  1   
 48  24  45  1   
@<TRIPOS>SUBSTRUCTURE
  1 ****   1 GROUP 4 **** **** 0

# MOE 2024.06 (io_trps.svl 2023.06)
