@<TRIPOS>MOLECULE
8-[4-(3-Chloro-phenyl)-piperazin-1-ylmethyl]-1,3-dimethyl-7-propyl-3,7-dihydro-p
58 61 1 0 0 
SMALL
USER_CHARGES


@<TRIPOS>ATOM
  1 CL       0.4750     0.5630    -1.3930 Cl    1 <1>  -0.1770 
  2 C        0.9370     1.9720    -0.4710 C.ar  1 <1>   0.1770 
  3 C        0.2170     3.1400    -0.6170 C.ar  1 <1>  -0.1500 
  4 C        2.0150     1.8900     0.3920 C.ar  1 <1>  -0.1500 
  5 C        0.5770     4.2660     0.1140 C.ar  1 <1>   0.1000 
  6 C        2.3780     3.0090     1.1230 C.ar  1 <1>  -0.1500 
  7 N       -0.1210     5.4620     0.0010 N.pl3 1 <1>  -0.8380 
  8 C        1.6600     4.1850     0.9810 C.ar  1 <1>  -0.1500 
  9 C       -0.1050     6.1240    -1.3340 C.3   1 <1>   0.2090 
 10 C       -1.4590     5.5040     0.6450 C.3   1 <1>   0.2090 
 11 C       -0.6590     7.5590    -1.2320 C.3   1 <1>   0.1100 
 12 C       -1.9740     6.9540     0.7130 C.3   1 <1>   0.1100 
 13 N       -2.0170     7.6050    -0.6270 N.3   1 <1>  -0.8100 
 14 C       -2.5080     9.0060    -0.5340 C.3   1 <1>   0.2540 
 15 C       -4.0350     9.0660    -0.3580 C.cat 1 <1>   0.6560 
 16 N       -4.8200     8.0630    -0.7310 N.pl3 1 <1>  -0.7000 
 17 N       -4.7670    10.0480     0.1610 N.pl3 1 <1>  -0.7640 
 18 C       -6.1020     8.3960    -0.4480 C.2   1 <1>   0.4260 
 19 C       -6.1040     9.6280     0.1130 C.2   1 <1>   0.2770 
 20 C       -4.3320    11.3630     0.7030 C.3   1 <1>   0.3540 
 21 N       -7.2420     7.6430    -0.6600 N.am  1 <1>  -0.4360 
 22 C       -7.3610    10.1910     0.5180 C.2   1 <1>   0.7030 
 23 C       -4.4570    12.4280    -0.3900 C.3   1 <1>  -0.1600 
 24 C       -8.4550     8.1670    -0.2410 C.2   1 <1>   0.6900 
 25 C       -7.1680     6.2930    -1.2920 C.3   1 <1>   0.0600 
 26 O       -7.4220    11.2900     1.0410 O.2   1 <1>  -0.5700 
 27 N       -8.5130     9.4430     0.3100 N.am  1 <1>  -0.4200 
 28 C       -3.9770    13.7990     0.1000 C.3   1 <1>  -0.2400 
 29 O       -9.4670     7.5050    -0.3470 O.2   1 <1>  -0.5700 
 30 C       -9.8420     9.9920     0.7240 C.3   1 <1>   0.0600 
 31 H       -0.6160     3.1750    -1.2910 H     1 <1>   0.1500 
 32 H        2.5580     0.9670     0.4860 H     1 <1>   0.1500 
 33 H        3.2140     2.9660     1.7990 H     1 <1>   0.1500 
 34 H        1.9330     5.0590     1.5420 H     1 <1>   0.1500 
 35 H       -0.7000     5.5580    -2.0280 H     1 <1>   0.0800 
 36 H        0.9060     6.1530    -1.7020 H     1 <1>   0.0800 
 37 H       -1.3860     5.0990     1.6400 H     1 <1>   0.0800 
 38 H       -2.1500     4.8980     0.0840 H     1 <1>   0.0800 
 39 H       -0.6890     7.9810    -2.2220 H     1 <1>   0.0800 
 40 H        0.0280     8.1430    -0.6420 H     1 <1>   0.0800 
 41 H       -1.3230     7.5060     1.3700 H     1 <1>   0.0800 
 42 H       -2.9570     6.9430     1.1510 H     1 <1>   0.0800 
 43 H       -2.2700     9.5270    -1.4440 H     1 <1>   0.0800 
 44 H       -2.0210     9.5120     0.2800 H     1 <1>   0.0800 
 45 H       -4.4400     7.2030    -1.1380 H     1 <1>   0.4500 
 46 H       -3.3110    11.3050     1.0380 H     1 <1>   0.0800 
 47 H       -4.9420    11.6320     1.5500 H     1 <1>   0.0800 
 48 H       -5.4870    12.5130    -0.6900 H     1 <1>   0.0800 
 49 H       -3.8730    12.1410    -1.2470 H     1 <1>   0.0800 
 50 H       -6.4300     6.2840    -2.0750 H     1 <1>   0.0800 
 51 H       -8.1170     6.0260    -1.7270 H     1 <1>   0.0800 
 52 H       -6.9130     5.5580    -0.5490 H     1 <1>   0.0800 
 53 H       -4.5630    14.1290     0.9410 H     1 <1>   0.0800 
 54 H       -4.0820    14.5270    -0.6870 H     1 <1>   0.0800 
 55 H       -2.9410    13.7650     0.3910 H     1 <1>   0.0800 
 56 H       -9.8270    11.0680     0.7460 H     1 <1>   0.0800 
 57 H      -10.0940     9.6250     1.7040 H     1 <1>   0.0800 
 58 H      -10.6060     9.6820     0.0310 H     1 <1>   0.0800 
@<TRIPOS>BOND
  1   1   2  1   
  2   2   3  ar  
  3   2   4  ar  
  4   3   5  ar  
  5   3  31  1   
  6   4   6  ar  
  7   4  32  1   
  8   5   7  1   
  9   5   8  ar  
 10   6   8  ar  
 11   6  33  1   
 12   7   9  1   
 13   7  10  1   
 14   8  34  1   
 15   9  11  1   
 16   9  35  1   
 17   9  36  1   
 18  10  12  1   
 19  10  37  1   
 20  10  38  1   
 21  11  13  1   
 22  11  39  1   
 23  11  40  1   
 24  12  13  1   
 25  12  41  1   
 26  12  42  1   
 27  13  14  1   
 28  14  15  1   
 29  14  43  1   
 30  14  44  1   
 31  15  16  ar  
 32  15  17  ar  
 33  16  18  1   
 34  16  45  1   
 35  17  19  1   
 36  17  20  1   
 37  18  19  2   
 38  18  21  1   
 39  19  22  1   
 40  20  23  1   
 41  20  46  1   
 42  20  47  1   
 43  21  24  am  
 44  21  25  1   
 45  22  26  2   
 46  22  27  am  
 47  23  28  1   
 48  23  48  1   
 49  23  49  1   
 50  24  27  am  
 51  24  29  2   
 52  25  50  1   
 53  25  51  1   
 54  25  52  1   
 55  27  30  1   
 56  28  53  1   
 57  28  54  1   
 58  28  55  1   
 59  30  56  1   
 60  30  57  1   
 61  30  58  1   
@<TRIPOS>SUBSTRUCTURE
  1 ****  13 GROUP 4 **** **** 0

# MOE 2024.06 (io_trps.svl 2023.06)
