@<TRIPOS>MOLECULE
2-[(3,5-Dimethyl-phenyl)-methanesulfonyl-amino]-N-pyridin-3-ylmethyl-propionamid
48 49 1 0 0 
SMALL
USER_CHARGES


@<TRIPOS>ATOM
  1 S        1.9600     0.8780    -0.6510 S.o2  1 <1>   1.3330 
  2 O        2.9610     0.9630    -1.6890 O.2   1 <1>  -0.6500 
  3 O        2.3260     1.1440     0.7180 O.2   1 <1>  -0.6500 
  4 N        0.7230     2.0020    -1.0910 N.am  1 <1>  -0.6930 
  5 C        1.1320    -0.6920    -0.7780 C.3   1 <1>  -0.1350 
  6 C       -0.4190     2.0850    -0.3010 C.ar  1 <1>   0.1990 
  7 C        1.2260     3.2330    -1.7870 C.3   1 <1>   0.3370 
  8 C       -1.6100     1.5320    -0.7530 C.ar  1 <1>  -0.1500 
  9 C       -0.3990     2.7090     0.9400 C.ar  1 <1>  -0.1500 
 10 C        2.2200     4.0550    -0.9280 C.2   1 <1>   0.5690 
 11 C        0.0550     4.0730    -2.3260 C.3   1 <1>  -0.2400 
 12 C       -2.7590     1.5910     0.0160 C.ar  1 <1>  -0.1440 
 13 C       -1.5400     2.7790     1.7180 C.ar  1 <1>  -0.1440 
 14 O        1.8400     5.0060    -0.2830 O.2   1 <1>  -0.5700 
 15 N        3.5280     3.6840    -0.9030 N.am  1 <1>  -0.7300 
 16 C       -2.7180     2.2160     1.2520 C.ar  1 <1>  -0.1500 
 17 C       -4.0610     0.9870    -0.4770 C.3   1 <1>  -0.0970 
 18 C       -1.5010     3.4660     3.0710 C.3   1 <1>  -0.0970 
 19 C        4.4980     4.1850     0.0790 C.3   1 <1>   0.2840 
 20 C        5.6660     3.2210     0.1230 C.ar  1 <1>  -0.1430 
 21 C        5.5950     2.0690     0.8930 C.ar  1 <1>   0.1600 
 22 C        6.8150     3.4680    -0.6020 C.ar  1 <1>  -0.1500 
 23 N        6.5620     1.1700     1.0010 N.ar  1 <1>  -0.6200 
 24 C        7.8290     2.5400    -0.5040 C.ar  1 <1>  -0.1500 
 25 C        7.6540     1.4270     0.3000 C.ar  1 <1>   0.1600 
 26 H        1.8170    -1.4860    -0.5560 H     1 <1>   0.0800 
 27 H        0.7500    -0.8300    -1.7700 H     1 <1>   0.0800 
 28 H        0.3170    -0.7370    -0.0810 H     1 <1>   0.0800 
 29 H        1.7740     2.9060    -2.6520 H     1 <1>   0.0800 
 30 H       -1.6250     1.0580    -1.7160 H     1 <1>   0.1500 
 31 H        0.5220     3.1390     1.2920 H     1 <1>   0.1500 
 32 H       -0.5180     4.4910    -1.5170 H     1 <1>   0.0800 
 33 H       -0.5820     3.4720    -2.9470 H     1 <1>   0.0800 
 34 H        0.4390     4.8870    -2.9130 H     1 <1>   0.0800 
 35 H        3.8030     2.7940    -1.3430 H     1 <1>   0.3700 
 36 H       -3.6080     2.2660     1.8550 H     1 <1>   0.1500 
 37 H       -3.9280     0.5090    -1.4310 H     1 <1>   0.0800 
 38 H       -4.8040     1.7570    -0.5800 H     1 <1>   0.0800 
 39 H       -4.4140     0.2550     0.2260 H     1 <1>   0.0800 
 40 H       -0.7170     4.2020     3.0960 H     1 <1>   0.0800 
 41 H       -1.3190     2.7390     3.8420 H     1 <1>   0.0800 
 42 H       -2.4360     3.9590     3.2680 H     1 <1>   0.0800 
 43 H        4.0300     4.2500     1.0470 H     1 <1>   0.0800 
 44 H        4.8240     5.1690    -0.2100 H     1 <1>   0.0800 
 45 H        4.6910     1.8730     1.4480 H     1 <1>   0.1500 
 46 H        6.9180     4.3440    -1.2200 H     1 <1>   0.1500 
 47 H        8.7480     2.6740    -1.0440 H     1 <1>   0.1500 
 48 H        8.4530     0.7090     0.3690 H     1 <1>   0.1500 
@<TRIPOS>BOND
  1   1   2  2   
  2   1   3  2   
  3   1   4  am  
  4   1   5  1   
  5   4   6  1   
  6   4   7  1   
  7   5  26  1   
  8   5  27  1   
  9   5  28  1   
 10   6   8  ar  
 11   6   9  ar  
 12   7  10  1   
 13   7  11  1   
 14   7  29  1   
 15   8  12  ar  
 16   8  30  1   
 17   9  13  ar  
 18   9  31  1   
 19  10  14  2   
 20  10  15  am  
 21  11  32  1   
 22  11  33  1   
 23  11  34  1   
 24  12  16  ar  
 25  12  17  1   
 26  13  16  ar  
 27  13  18  1   
 28  15  19  1   
 29  15  35  1   
 30  16  36  1   
 31  17  37  1   
 32  17  38  1   
 33  17  39  1   
 34  18  40  1   
 35  18  41  1   
 36  18  42  1   
 37  19  20  1   
 38  19  43  1   
 39  19  44  1   
 40  20  21  ar  
 41  20  22  ar  
 42  21  23  ar  
 43  21  45  1   
 44  22  24  ar  
 45  22  46  1   
 46  23  25  ar  
 47  24  25  ar  
 48  24  47  1   
 49  25  48  1   
@<TRIPOS>SUBSTRUCTURE
  1 ****   3 GROUP 4 **** **** 0

# MOE 2024.06 (io_trps.svl 2023.06)
