@<TRIPOS>MOLECULE
3-(2-Methoxy-ethyl)-8-(3-methoxy-propyl)-1,6,7-trimethyl-1H,8H-imidazo[2,1-f]pur
52 54 1 0 0 
SMALL
USER_CHARGES


@<TRIPOS>ATOM
  1 O        1.8490    -0.5960     1.4350 O.2   1 <1>  -0.5740 
  2 C        2.5450     0.3620     1.1710 C.2   1 <1>   0.6870 
  3 N        1.9720     1.6210     1.0170 N.am  1 <1>  -0.4250 
  4 N        3.9140     0.1980     1.0130 N.am  1 <1>  -0.4410 
  5 C        2.7370     2.7250     0.6620 C.2   1 <1>   0.7000 
  6 C        0.4990     1.7830     1.2320 C.3   1 <1>   0.1330 
  7 C        4.6730     1.3090     0.7100 C.2   1 <1>   0.4210 
  8 C        4.5570    -1.1400     1.1760 C.3   1 <1>   0.0530 
  9 O        2.2140     3.8080     0.4650 O.2   1 <1>  -0.5740 
 10 C        4.1450     2.5440     0.5250 C.2   1 <1>   0.2710 
 11 C       -0.2700     1.4750    -0.0530 C.3   1 <1>   0.1130 
 12 N        6.0200     1.3690     0.5330 N.pl3 1 <1>  -0.7030 
 13 N        5.2250     3.3890     0.2080 N.pl3 1 <1>  -0.6330 
 14 O       -1.6190     1.7050     0.1880 O.3   1 <1>  -0.5640 
 15 C        6.3120     2.6290     0.2260 C.cat 1 <1>   1.0690 
 16 C        5.6370     4.6580    -0.1400 C.2   1 <1>   0.2340 
 17 C       -2.4390     1.4340    -0.9010 C.3   1 <1>   0.0320 
 18 N        7.4140     3.3190    -0.0850 N.pl3 1 <1>  -0.5720 
 19 C        6.9810     4.6160    -0.3200 C.2   1 <1>   0.1580 
 20 C        4.6330     5.7880    -0.2580 C.3   1 <1>  -0.1090 
 21 C        8.8020     2.7860    -0.1330 C.3   1 <1>   0.1610 
 22 C        7.9440     5.7240    -0.7110 C.3   1 <1>  -0.1090 
 23 C        8.9550     1.7310    -1.2400 C.3   1 <1>  -0.1670 
 24 C        9.2890     0.3360    -0.7010 C.3   1 <1>   0.1130 
 25 O        8.2960    -0.0700     0.1890 O.3   1 <1>  -0.5640 
 26 C        8.5620    -1.3150     0.7620 C.3   1 <1>   0.0320 
 27 H        0.2790     2.7890     1.5440 H     1 <1>   0.0730 
 28 H        0.1680     1.1160     2.0100 H     1 <1>   0.0730 
 29 H        3.8330    -1.9280     1.0560 H     1 <1>   0.0730 
 30 H        4.9900    -1.2160     2.1580 H     1 <1>   0.0730 
 31 H        5.3250    -1.2780     0.4350 H     1 <1>   0.0730 
 32 H       -0.1420     0.4430    -0.3300 H     1 <1>   0.0730 
 33 H        0.0470     2.1270    -0.8490 H     1 <1>   0.0730 
 34 H        6.7390     0.6300     0.5150 H     1 <1>   0.4450 
 35 H       -3.4550     1.6400    -0.6130 H     1 <1>   0.0730 
 36 H       -2.3420     0.3960    -1.1700 H     1 <1>   0.0730 
 37 H       -2.1600     2.0690    -1.7240 H     1 <1>   0.0730 
 38 H        4.1270     5.9290     0.6810 H     1 <1>   0.0730 
 39 H        3.9000     5.5510    -1.0080 H     1 <1>   0.0730 
 40 H        5.1150     6.7080    -0.5290 H     1 <1>   0.0730 
 41 H        9.0520     2.3640     0.8260 H     1 <1>   0.0730 
 42 H        9.4920     3.5910    -0.3170 H     1 <1>   0.0730 
 43 H        8.4530     5.4650    -1.6230 H     1 <1>   0.0730 
 44 H        8.6730     5.8720     0.0660 H     1 <1>   0.0730 
 45 H        7.4230     6.6510    -0.8670 H     1 <1>   0.0730 
 46 H        9.7720     2.0290    -1.8740 H     1 <1>   0.0730 
 47 H        8.0820     1.6780    -1.8660 H     1 <1>   0.0730 
 48 H       10.2330     0.3540    -0.1800 H     1 <1>   0.0730 
 49 H        9.3430    -0.3750    -1.5090 H     1 <1>   0.0730 
 50 H        8.6150    -2.0610    -0.0140 H     1 <1>   0.0730 
 51 H        7.7660    -1.5580     1.4430 H     1 <1>   0.0730 
 52 H        9.4930    -1.2690     1.3000 H     1 <1>   0.0730 
@<TRIPOS>BOND
  1   1   2  2   
  2   2   3  am  
  3   2   4  am  
  4   3   5  am  
  5   3   6  1   
  6   4   7  1   
  7   4   8  1   
  8   5   9  2   
  9   5  10  1   
 10   6  11  1   
 11   6  27  1   
 12   6  28  1   
 13   7  10  2   
 14   7  12  1   
 15   8  29  1   
 16   8  30  1   
 17   8  31  1   
 18  10  13  1   
 19  11  14  1   
 20  11  32  1   
 21  11  33  1   
 22  12  15  ar  
 23  12  34  1   
 24  13  15  ar  
 25  13  16  1   
 26  14  17  1   
 27  15  18  ar  
 28  16  19  2   
 29  16  20  1   
 30  17  35  1   
 31  17  36  1   
 32  17  37  1   
 33  18  19  1   
 34  18  21  1   
 35  19  22  1   
 36  20  38  1   
 37  20  39  1   
 38  20  40  1   
 39  21  23  1   
 40  21  41  1   
 41  21  42  1   
 42  22  43  1   
 43  22  44  1   
 44  22  45  1   
 45  23  24  1   
 46  23  46  1   
 47  23  47  1   
 48  24  25  1   
 49  24  48  1   
 50  24  49  1   
 51  25  26  1   
 52  26  50  1   
 53  26  51  1   
 54  26  52  1   
@<TRIPOS>SUBSTRUCTURE
  1 ****  10 GROUP 4 **** **** 0

# MOE 2024.06 (io_trps.svl 2023.06)
