@<TRIPOS>MOLECULE
N-Isopropyl-2-[2-methyl-4-(pyrrolidine-1-sulfonyl)-phenoxy]-acetamide
47 48 1 0 0 
SMALL
USER_CHARGES


@<TRIPOS>ATOM
  1 S       -0.2300     0.6570    -1.4200 S.o2  1 <1>   1.4470 
  2 O       -0.3920    -0.1120    -2.6340 O.2   1 <1>  -0.6500 
  3 O       -0.9130     1.9280    -1.2900 O.2   1 <1>  -0.6500 
  4 N       -0.7670    -0.3250    -0.1490 N.am  1 <1>  -0.8490 
  5 C        1.5350     0.8480    -1.0590 C.ar  1 <1>  -0.0090 
  6 C       -2.0970    -0.8610    -0.3750 C.3   1 <1>   0.1960 
  7 C       -0.8280     0.3320     1.1450 C.3   1 <1>   0.1960 
  8 C        2.1230     2.1060    -0.9720 C.ar  1 <1>  -0.1500 
  9 C        2.3420    -0.2660    -0.8580 C.ar  1 <1>  -0.1500 
 10 C       -2.5470    -1.3600     0.9940 C.3   1 <1>  -0.1600 
 11 C       -1.6770    -0.6020     1.9970 C.3   1 <1>  -0.1600 
 12 C        3.4710     2.2650    -0.6960 C.ar  1 <1>  -0.1430 
 13 C        3.6900    -0.1310    -0.5840 C.ar  1 <1>  -0.1500 
 14 C        4.2550     1.1300    -0.5130 C.ar  1 <1>   0.0830 
 15 C        4.0570     3.6660    -0.5980 C.3   1 <1>  -0.0970 
 16 O        5.5740     1.2260    -0.2630 O.3   1 <1>  -0.3630 
 17 C        6.4170     1.3880    -1.3980 C.3   1 <1>   0.1810 
 18 C        7.3090     2.6140    -1.2530 C.2   1 <1>   0.5690 
 19 O        7.8050     3.0880    -2.2460 O.2   1 <1>  -0.5700 
 20 N        7.5160     3.1400    -0.0170 N.am  1 <1>  -0.7300 
 21 C        8.3400     4.3090     0.2970 C.3   1 <1>   0.2200 
 22 C        9.3720     3.8980     1.3400 C.3   1 <1>  -0.2400 
 23 C        7.4260     5.4100     0.8230 C.3   1 <1>  -0.2400 
 24 H       -2.0740    -1.6510    -1.1080 H     1 <1>   0.0800 
 25 H       -2.7550    -0.0770    -0.7140 H     1 <1>   0.0800 
 26 H       -1.3230     1.2870     1.0600 H     1 <1>   0.0800 
 27 H        0.1570     0.4720     1.5590 H     1 <1>   0.0800 
 28 H        1.5040     2.9750    -1.1240 H     1 <1>   0.1500 
 29 H        1.9030    -1.2490    -0.9170 H     1 <1>   0.1500 
 30 H       -2.3710    -2.4190     1.0710 H     1 <1>   0.0800 
 31 H       -3.5950    -1.1670     1.1400 H     1 <1>   0.0800 
 32 H       -2.2640    -0.0480     2.7080 H     1 <1>   0.0800 
 33 H       -1.0370    -1.2870     2.5260 H     1 <1>   0.0800 
 34 H        4.3050    -0.9990    -0.4270 H     1 <1>   0.1500 
 35 H        3.2800     4.4050    -0.5280 H     1 <1>   0.0800 
 36 H        4.6530     3.8800    -1.4670 H     1 <1>   0.0800 
 37 H        4.6760     3.7470     0.2770 H     1 <1>   0.0800 
 38 H        5.8130     1.4910    -2.2820 H     1 <1>   0.0800 
 39 H        7.0250     0.5090    -1.4870 H     1 <1>   0.0800 
 40 H        7.0250     2.7110     0.7700 H     1 <1>   0.3700 
 41 H        8.8430     4.6510    -0.5950 H     1 <1>   0.0800 
 42 H        8.8930     3.5540     2.2390 H     1 <1>   0.0800 
 43 H        9.9990     4.7370     1.5840 H     1 <1>   0.0800 
 44 H        9.9970     3.1160     0.9470 H     1 <1>   0.0800 
 45 H        6.9080     5.0880     1.7080 H     1 <1>   0.0800 
 46 H        6.7110     5.6820     0.0670 H     1 <1>   0.0800 
 47 H        8.0070     6.2820     1.0630 H     1 <1>   0.0800 
@<TRIPOS>BOND
  1   1   2  2   
  2   1   3  2   
  3   1   4  am  
  4   1   5  1   
  5   4   6  1   
  6   4   7  1   
  7   5   8  ar  
  8   5   9  ar  
  9   6  10  1   
 10   6  24  1   
 11   6  25  1   
 12   7  11  1   
 13   7  26  1   
 14   7  27  1   
 15   8  12  ar  
 16   8  28  1   
 17   9  13  ar  
 18   9  29  1   
 19  10  11  1   
 20  10  30  1   
 21  10  31  1   
 22  11  32  1   
 23  11  33  1   
 24  12  14  ar  
 25  12  15  1   
 26  13  14  ar  
 27  13  34  1   
 28  14  16  1   
 29  15  35  1   
 30  15  36  1   
 31  15  37  1   
 32  16  17  1   
 33  17  18  1   
 34  17  38  1   
 35  17  39  1   
 36  18  19  2   
 37  18  20  am  
 38  20  21  1   
 39  20  40  1   
 40  21  22  1   
 41  21  23  1   
 42  21  41  1   
 43  22  42  1   
 44  22  43  1   
 45  22  44  1   
 46  23  45  1   
 47  23  46  1   
 48  23  47  1   
@<TRIPOS>SUBSTRUCTURE
  1 ****  12 GROUP 4 **** **** 0

# MOE 2024.06 (io_trps.svl 2023.06)
