@<TRIPOS>MOLECULE
8-(2-Methoxy-ethylamino)-1,3-dimethyl-7-(3-methyl-benzyl)-3,7-dihydro-purine-2,6
50 52 1 0 0 
SMALL
USER_CHARGES


@<TRIPOS>ATOM
  1 O        1.6100    -0.7000    -0.4020 O.2   1 <1>  -0.5750 
  2 C        2.3660     0.2500    -0.3880 C.2   1 <1>   0.6860 
  3 N        1.9250     1.4980    -0.8190 N.am  1 <1>  -0.4260 
  4 N        3.6730     0.0870     0.0500 N.am  1 <1>  -0.4420 
  5 C        2.7910     2.5830    -0.8810 C.2   1 <1>   0.6990 
  6 C        0.5040     1.6490    -1.2620 C.3   1 <1>   0.0520 
  7 C        4.5160     1.1780    -0.0080 C.2   1 <1>   0.4200 
  8 C        4.1670    -1.2360     0.5310 C.3   1 <1>   0.0520 
  9 O        2.4140     3.6680    -1.2930 O.2   1 <1>  -0.5750 
 10 C        4.1440     2.3940    -0.4540 C.2   1 <1>   0.2700 
 11 N        5.8250     1.2380     0.3330 N.pl3 1 <1>  -0.7040 
 12 N        5.2860     3.2170    -0.3900 N.pl3 1 <1>  -0.7670 
 13 C        6.2780     2.4570     0.0930 C.cat 1 <1>   1.0690 
 14 C        5.2380     4.6440    -0.8270 C.3   1 <1>   0.4920 
 15 N        7.5420     2.8160     0.3120 N.pl3 1 <1>  -0.7180 
 16 C        6.6180     5.2670    -0.7440 C.ar  1 <1>  -0.1510 
 17 C        8.6140     2.0960     1.0600 C.3   1 <1>   0.1600 
 18 C        7.0370     5.8780     0.4300 C.ar  1 <1>  -0.1570 
 19 C        7.4930     5.1690    -1.8150 C.ar  1 <1>  -0.1570 
 20 C        9.1470     0.8530     0.3310 C.3   1 <1>   0.1120 
 21 C        8.3280     6.3610     0.5460 C.ar  1 <1>  -0.1510 
 22 C        8.7810     5.6570    -1.7030 C.ar  1 <1>  -0.1570 
 23 O        8.1440    -0.1170     0.2400 O.3   1 <1>  -0.5650 
 24 C        9.1980     6.2470    -0.5240 C.ar  1 <1>  -0.1570 
 25 C        8.7880     7.0260     1.8320 C.3   1 <1>  -0.1040 
 26 C        8.5750    -1.3020    -0.3550 C.3   1 <1>   0.0320 
 27 H        0.4030     1.2990    -2.2740 H     1 <1>   0.0720 
 28 H        0.1900     2.6770    -1.2130 H     1 <1>   0.0720 
 29 H       -0.1450     1.0690    -0.6280 H     1 <1>   0.0720 
 30 H        3.3480    -1.8380     0.8890 H     1 <1>   0.0720 
 31 H        4.8650    -1.1050     1.3390 H     1 <1>   0.0720 
 32 H        4.6500    -1.7570    -0.2770 H     1 <1>   0.0720 
 33 H        6.4880     0.4790     0.5420 H     1 <1>   0.4450 
 34 H        4.5520     5.1900    -0.2010 H     1 <1>   0.0720 
 35 H        4.8780     4.6990    -1.8410 H     1 <1>   0.0720 
 36 H        7.7860     3.7800     0.0410 H     1 <1>   0.4450 
 37 H        8.2500     1.8090     2.0320 H     1 <1>   0.0720 
 38 H        9.4330     2.7780     1.2130 H     1 <1>   0.0720 
 39 H        6.3630     5.9760     1.2650 H     1 <1>   0.1430 
 40 H        7.1870     4.7110    -2.7420 H     1 <1>   0.1430 
 41 H        9.9700     0.4360     0.8860 H     1 <1>   0.0720 
 42 H        9.4820     1.1090    -0.6600 H     1 <1>   0.0720 
 43 H        9.4620     5.5850    -2.5350 H     1 <1>   0.1430 
 44 H       10.2030     6.6290    -0.4480 H     1 <1>   0.1430 
 45 H        8.2400     6.6470     2.6760 H     1 <1>   0.0720 
 46 H        8.6300     8.0880     1.7670 H     1 <1>   0.0720 
 47 H        9.8350     6.8450     1.9970 H     1 <1>   0.0720 
 48 H        7.7470    -1.9870    -0.3910 H     1 <1>   0.0720 
 49 H        9.3700    -1.7290     0.2330 H     1 <1>   0.0720 
 50 H        8.9180    -1.0960    -1.3550 H     1 <1>   0.0720 
@<TRIPOS>BOND
  1   1   2  2   
  2   2   3  am  
  3   2   4  am  
  4   3   5  am  
  5   3   6  1   
  6   4   7  1   
  7   4   8  1   
  8   5   9  2   
  9   5  10  1   
 10   6  27  1   
 11   6  28  1   
 12   6  29  1   
 13   7  10  2   
 14   7  11  1   
 15   8  30  1   
 16   8  31  1   
 17   8  32  1   
 18  10  12  1   
 19  11  13  ar  
 20  11  33  1   
 21  12  13  ar  
 22  12  14  1   
 23  13  15  ar  
 24  14  16  1   
 25  14  34  1   
 26  14  35  1   
 27  15  17  1   
 28  15  36  1   
 29  16  18  ar  
 30  16  19  ar  
 31  17  20  1   
 32  17  37  1   
 33  17  38  1   
 34  18  21  ar  
 35  18  39  1   
 36  19  22  ar  
 37  19  40  1   
 38  20  23  1   
 39  20  41  1   
 40  20  42  1   
 41  21  24  ar  
 42  21  25  1   
 43  22  24  ar  
 44  22  43  1   
 45  23  26  1   
 46  24  44  1   
 47  25  45  1   
 48  25  46  1   
 49  25  47  1   
 50  26  48  1   
 51  26  49  1   
 52  26  50  1   
@<TRIPOS>SUBSTRUCTURE
  1 ****  13 GROUP 4 **** **** 0

# MOE 2024.06 (io_trps.svl 2023.06)
