@<TRIPOS>MOLECULE
N-tert-Butyl-4-(3-phenyl-[1,2,4]oxadiazol-5-yl)-butyramide
42 43 1 0 0 
SMALL
USER_CHARGES


@<TRIPOS>ATOM
  1 O       -1.2790    -1.3830    -2.3820 O.2   1 <1>  -0.5700 
  2 C       -1.3280    -2.0740    -1.3970 C.2   1 <1>   0.5690 
  3 N       -0.3240    -2.9570    -1.1830 N.am  1 <1>  -0.7300 
  4 C       -2.5080    -1.9260    -0.4450 C.3   1 <1>  -0.0990 
  5 C       -0.0100    -3.9490    -0.1480 C.3   1 <1>   0.3000 
  6 C       -3.3760    -0.6760    -0.7010 C.3   1 <1>  -0.1600 
  7 C        1.0950    -4.8270    -0.7340 C.3   1 <1>  -0.2400 
  8 C       -1.2210    -4.8250     0.1810 C.3   1 <1>  -0.2400 
  9 C        0.5170    -3.2300     1.0920 C.3   1 <1>  -0.2400 
 10 C       -4.4580    -0.4530     0.3710 C.3   1 <1>   0.0200 
 11 C       -5.3770    -1.6490     0.5460 C.2   1 <1>   0.2980 
 12 O       -5.0140    -2.6070     1.3590 O.3   1 <1>  -0.0190 
 13 N       -6.4920    -1.8190    -0.0330 N.2   1 <1>  -0.5650 
 14 N       -5.9780    -3.4680     1.2820 N.2   1 <1>  -0.4100 
 15 C       -6.8550    -3.0070     0.4610 C.2   1 <1>   0.4620 
 16 C       -8.0970    -3.6670     0.0880 C.ar  1 <1>   0.0540 
 17 C       -8.9780    -3.1050    -0.8380 C.ar  1 <1>  -0.1500 
 18 C       -8.4580    -4.8970     0.6430 C.ar  1 <1>  -0.1500 
 19 C      -10.1580    -3.7350    -1.1920 C.ar  1 <1>  -0.1500 
 20 C       -9.6350    -5.5330     0.2940 C.ar  1 <1>  -0.1500 
 21 C      -10.4890    -4.9520    -0.6260 C.ar  1 <1>  -0.1500 
 22 H        0.3900    -2.9190    -1.9100 H     1 <1>   0.3700 
 23 H       -2.1360    -1.8890     0.5600 H     1 <1>   0.0800 
 24 H       -3.1190    -2.8020    -0.5570 H     1 <1>   0.0800 
 25 H       -3.8480    -0.7720    -1.6640 H     1 <1>   0.0800 
 26 H       -2.7420     0.1930    -0.7370 H     1 <1>   0.0800 
 27 H        0.7470    -5.3290    -1.6200 H     1 <1>   0.0800 
 28 H        1.3930    -5.5750    -0.0220 H     1 <1>   0.0800 
 29 H        1.9600    -4.2370    -0.9800 H     1 <1>   0.0800 
 30 H       -0.9120    -5.6680     0.7730 H     1 <1>   0.0800 
 31 H       -1.6740    -5.1950    -0.7210 H     1 <1>   0.0800 
 32 H       -1.9510    -4.2900     0.7560 H     1 <1>   0.0800 
 33 H        0.8330    -3.9490     1.8280 H     1 <1>   0.0800 
 34 H       -0.2410    -2.6150     1.5360 H     1 <1>   0.0800 
 35 H        1.3610    -2.6140     0.8390 H     1 <1>   0.0800 
 36 H       -5.0550     0.3960     0.0880 H     1 <1>   0.0800 
 37 H       -3.9970    -0.2280     1.3150 H     1 <1>   0.0800 
 38 H       -8.7360    -2.1580    -1.2890 H     1 <1>   0.1500 
 39 H       -7.8050    -5.3630     1.3600 H     1 <1>   0.1500 
 40 H      -10.8180    -3.2780    -1.9090 H     1 <1>   0.1500 
 41 H       -9.8880    -6.4800     0.7380 H     1 <1>   0.1500 
 42 H      -11.4060    -5.4440    -0.9000 H     1 <1>   0.1500 
@<TRIPOS>BOND
  1   1   2  2   
  2   2   3  am  
  3   2   4  1   
  4   3   5  1   
  5   3  22  1   
  6   4   6  1   
  7   4  23  1   
  8   4  24  1   
  9   5   7  1   
 10   5   8  1   
 11   5   9  1   
 12   6  10  1   
 13   6  25  1   
 14   6  26  1   
 15   7  27  1   
 16   7  28  1   
 17   7  29  1   
 18   8  30  1   
 19   8  31  1   
 20   8  32  1   
 21   9  33  1   
 22   9  34  1   
 23   9  35  1   
 24  10  11  1   
 25  10  36  1   
 26  10  37  1   
 27  11  12  1   
 28  11  13  2   
 29  12  14  1   
 30  13  15  1   
 31  14  15  2   
 32  15  16  1   
 33  16  17  ar  
 34  16  18  ar  
 35  17  19  ar  
 36  17  38  1   
 37  18  20  ar  
 38  18  39  1   
 39  19  21  ar  
 40  19  40  1   
 41  20  21  ar  
 42  20  41  1   
 43  21  42  1   
@<TRIPOS>SUBSTRUCTURE
  1 ****  12 GROUP 4 **** **** 0

# MOE 2024.06 (io_trps.svl 2023.06)
