@<TRIPOS>MOLECULE
4-(4-Fluoro-benzenesulfonyl)-piperazine-1-sulfonic acid dimethylamide
40 41 1 0 0 
SMALL
USER_CHARGES


@<TRIPOS>ATOM
  1 S        0.4180     0.6090     0.9410 S.o2  1 <1>   1.5760 
  2 O        0.6840     0.1790     2.2940 O.2   1 <1>  -0.6500 
  3 O        0.0330     1.9740     0.6580 O.2   1 <1>  -0.6500 
  4 N        1.7510     0.2180    -0.0140 N.am  1 <1>  -0.8490 
  5 N       -0.7380    -0.4190     0.2540 N.am  1 <1>  -0.8490 
  6 C        2.8270     1.2010     0.1540 C.3   1 <1>   0.1960 
  7 C        2.2600    -1.1290     0.2830 C.3   1 <1>   0.1960 
  8 C       -1.1350     0.0060    -1.0900 C.3   1 <1>   0.1160 
  9 C       -1.9160    -0.5480     1.1120 C.3   1 <1>   0.1160 
 10 C        4.0570     0.8590    -0.7230 C.3   1 <1>   0.1960 
 11 C        3.4220    -1.4840    -0.6640 C.3   1 <1>   0.1960 
 12 N        4.5470    -0.5300    -0.5760 N.am  1 <1>  -0.8490 
 13 S        5.5560    -0.7850     0.7670 S.o2  1 <1>   1.4470 
 14 O        5.7320    -2.2140     0.9020 O.2   1 <1>  -0.6500 
 15 O        5.0190    -0.0280     1.8750 O.2   1 <1>  -0.6500 
 16 C        7.1260    -0.0480     0.2270 C.ar  1 <1>  -0.0090 
 17 C        7.7120    -0.4320    -0.9780 C.ar  1 <1>  -0.1500 
 18 C        7.7740     0.9130     1.0020 C.ar  1 <1>  -0.1500 
 19 C        8.9060     0.1250    -1.4070 C.ar  1 <1>  -0.1500 
 20 C        8.9680     1.4820     0.5900 C.ar  1 <1>  -0.1500 
 21 C        9.5130     1.0760    -0.6120 C.ar  1 <1>   0.1900 
 22 F       10.6360     1.6070    -1.0080 F     1 <1>  -0.1900 
 23 H        3.1090     1.2620     1.1910 H     1 <1>   0.0800 
 24 H        2.4660     2.1730    -0.1350 H     1 <1>   0.0800 
 25 H        1.4710    -1.8490     0.1470 H     1 <1>   0.0800 
 26 H        2.5910    -1.1920     1.3070 H     1 <1>   0.0800 
 27 H       -0.2690     0.0690    -1.7270 H     1 <1>   0.0800 
 28 H       -1.6110     0.9720    -1.0580 H     1 <1>   0.0800 
 29 H       -1.8180    -0.7090    -1.5170 H     1 <1>   0.0800 
 30 H       -1.6280    -0.9370     2.0740 H     1 <1>   0.0800 
 31 H       -2.6240    -1.2290     0.6710 H     1 <1>   0.0800 
 32 H       -2.3860     0.4110     1.2520 H     1 <1>   0.0800 
 33 H        4.8520     1.5530    -0.5090 H     1 <1>   0.0800 
 34 H        3.7750     1.0090    -1.7510 H     1 <1>   0.0800 
 35 H        3.0430    -1.4790    -1.6710 H     1 <1>   0.0800 
 36 H        3.7600    -2.4860    -0.4610 H     1 <1>   0.0800 
 37 H        7.2240    -1.1780    -1.5840 H     1 <1>   0.1500 
 38 H        7.3380     1.2190     1.9390 H     1 <1>   0.1500 
 39 H        9.3590    -0.1710    -2.3370 H     1 <1>   0.1500 
 40 H        9.4700     2.2230     1.1860 H     1 <1>   0.1500 
@<TRIPOS>BOND
  1   1   2  2   
  2   1   3  2   
  3   1   4  am  
  4   1   5  am  
  5   4   6  1   
  6   4   7  1   
  7   5   8  1   
  8   5   9  1   
  9   6  10  1   
 10   6  23  1   
 11   6  24  1   
 12   7  11  1   
 13   7  25  1   
 14   7  26  1   
 15   8  27  1   
 16   8  28  1   
 17   8  29  1   
 18   9  30  1   
 19   9  31  1   
 20   9  32  1   
 21  10  12  1   
 22  10  33  1   
 23  10  34  1   
 24  11  12  1   
 25  11  35  1   
 26  11  36  1   
 27  12  13  am  
 28  13  14  2   
 29  13  15  2   
 30  13  16  1   
 31  16  17  ar  
 32  16  18  ar  
 33  17  19  ar  
 34  17  37  1   
 35  18  20  ar  
 36  18  38  1   
 37  19  21  ar  
 38  19  39  1   
 39  20  21  ar  
 40  20  40  1   
 41  21  22  1   
@<TRIPOS>SUBSTRUCTURE
  1 ****  12 GROUP 4 **** **** 0

# MOE 2024.06 (io_trps.svl 2023.06)
