@<TRIPOS>MOLECULE
Succinic acid mono-{2-[4-(toluene-4-sulfonyl)-piperazin-1-yl]-ethyl} ester
49 50 1 0 0 
SMALL
USER_CHARGES


@<TRIPOS>ATOM
  1 S        0.5930    -1.0290    -1.5860 S.o2  1 <1>   1.4470 
  2 O       -0.4700    -1.5940    -2.3910 O.2   1 <1>  -0.6500 
  3 O        1.9050    -0.8560    -2.1710 O.2   1 <1>  -0.6500 
  4 N        0.7860    -2.0580    -0.2550 N.am  1 <1>  -0.8490 
  5 C        0.0540     0.5300    -0.8300 C.ar  1 <1>  -0.0090 
  6 C       -0.5010    -2.4120     0.3710 C.3   1 <1>   0.1960 
  7 C        1.5310    -3.2720    -0.6250 C.3   1 <1>   0.1960 
  8 C       -1.1090     1.1690    -1.2410 C.ar  1 <1>  -0.1500 
  9 C        0.7930     1.1210     0.1880 C.ar  1 <1>  -0.1500 
 10 C       -0.3100    -3.3670     1.5680 C.3   1 <1>   0.1100 
 11 C        1.7100    -4.2270     0.5750 C.3   1 <1>   0.1100 
 12 C       -1.5240     2.3530    -0.6540 C.ar  1 <1>  -0.1500 
 13 C        0.3850     2.3040     0.7780 C.ar  1 <1>  -0.1500 
 14 N        0.4290    -4.6010     1.2120 N.3   1 <1>  -0.8100 
 15 C       -0.7770     2.9270     0.3590 C.ar  1 <1>  -0.1440 
 16 C       -0.3390    -5.5550     0.3800 C.3   1 <1>   0.1100 
 17 C       -1.2270     4.2250     1.0060 C.3   1 <1>  -0.0970 
 18 C       -1.4870    -6.1970     1.1610 C.3   1 <1>   0.1200 
 19 O       -2.1090    -7.1560     0.3330 O.3   1 <1>  -0.4300 
 20 C       -3.2560    -7.7280     0.6780 C.2   1 <1>   0.6590 
 21 O       -3.8330    -7.4280     1.6920 O.2   1 <1>  -0.5700 
 22 C       -3.8050    -8.7610    -0.2850 C.3   1 <1>  -0.0990 
 23 C       -2.9360   -10.0300    -0.3740 C.3   1 <1>  -0.2660 
 24 C       -3.4770   -10.9820    -1.4090 C.2   1 <1>   0.9060 
 25 O       -3.3490   -10.6790    -2.5980 O.co2 1 <1>  -0.9000 
 26 O       -4.0370   -12.0130    -1.0300 O.co2 1 <1>  -0.9000 
 27 H       -1.1520    -2.8770    -0.3500 H     1 <1>   0.0800 
 28 H       -0.9850    -1.5180     0.7210 H     1 <1>   0.0800 
 29 H        2.5070    -2.9940    -0.9850 H     1 <1>   0.0800 
 30 H        1.0230    -3.7870    -1.4230 H     1 <1>   0.0800 
 31 H       -1.7010     0.7360    -2.0300 H     1 <1>   0.1500 
 32 H        1.7010     0.6450     0.5200 H     1 <1>   0.1500 
 33 H       -1.2680    -3.6130     1.9890 H     1 <1>   0.0800 
 34 H        0.2420    -2.8440     2.3290 H     1 <1>   0.0800 
 35 H        2.3310    -3.7390     1.3060 H     1 <1>   0.0800 
 36 H        2.2300    -5.1140     0.2570 H     1 <1>   0.0800 
 37 H       -2.4300     2.8240    -0.9920 H     1 <1>   0.1500 
 38 H        0.9790     2.7370     1.5650 H     1 <1>   0.1500 
 39 H        0.3200    -6.3460     0.0630 H     1 <1>   0.0800 
 40 H       -0.7280    -5.0650    -0.4950 H     1 <1>   0.0800 
 41 H       -1.8360     4.0120     1.8660 H     1 <1>   0.0800 
 42 H       -1.8000     4.8140     0.3120 H     1 <1>   0.0800 
 43 H       -0.3760     4.8050     1.3170 H     1 <1>   0.0800 
 44 H       -2.2250    -5.4660     1.4360 H     1 <1>   0.0800 
 45 H       -1.1180    -6.7000     2.0370 H     1 <1>   0.0800 
 46 H       -3.8770    -8.3140    -1.2600 H     1 <1>   0.0800 
 47 H       -4.7970    -9.0360     0.0240 H     1 <1>   0.0800 
 48 H       -2.9110   -10.5340     0.5740 H     1 <1>   0.0800 
 49 H       -1.9340    -9.7760    -0.6590 H     1 <1>   0.0800 
@<TRIPOS>BOND
  1   1   2  2   
  2   1   3  2   
  3   1   4  am  
  4   1   5  1   
  5   4   6  1   
  6   4   7  1   
  7   5   8  ar  
  8   5   9  ar  
  9   6  10  1   
 10   6  27  1   
 11   6  28  1   
 12   7  11  1   
 13   7  29  1   
 14   7  30  1   
 15   8  12  ar  
 16   8  31  1   
 17   9  13  ar  
 18   9  32  1   
 19  10  14  1   
 20  10  33  1   
 21  10  34  1   
 22  11  14  1   
 23  11  35  1   
 24  11  36  1   
 25  12  15  ar  
 26  12  37  1   
 27  13  15  ar  
 28  13  38  1   
 29  14  16  1   
 30  15  17  1   
 31  16  18  1   
 32  16  39  1   
 33  16  40  1   
 34  17  41  1   
 35  17  42  1   
 36  17  43  1   
 37  18  19  1   
 38  18  44  1   
 39  18  45  1   
 40  19  20  1   
 41  20  21  2   
 42  20  22  1   
 43  22  23  1   
 44  22  46  1   
 45  22  47  1   
 46  23  24  1   
 47  23  48  1   
 48  23  49  1   
 49  24  25  ar  
 50  24  26  ar  
@<TRIPOS>SUBSTRUCTURE
  1 ****   6 GROUP 4 **** **** 0

# MOE 2024.06 (io_trps.svl 2023.06)
