@<TRIPOS>MOLECULE
8-[(2-Methoxy-ethylamino)-methyl]-1,3-dimethyl-3,7-dihydro-purine-2,6-dione
37 38 1 0 0 
SMALL
USER_CHARGES


@<TRIPOS>ATOM
  1 O        0.2810     1.0050    -0.3810 O.2   1 <1>  -0.5700 
  2 C        1.4700     1.1720    -0.1720 C.2   1 <1>   0.6900 
  3 N        1.8960     2.2620     0.5790 N.am  1 <1>  -0.4200 
  4 N        2.3990     0.2690    -0.6880 N.am  1 <1>  -0.4240 
  5 C        3.2480     2.4870     0.8140 C.2   1 <1>   0.7160 
  6 C        0.8840     3.2250     1.1100 C.3   1 <1>   0.0600 
  7 C        3.7550     0.4660    -0.4240 C.2   1 <1>  -0.0880 
  8 C        1.9400    -0.8990    -1.4900 C.3   1 <1>   0.0600 
  9 O        3.6000     3.4740     1.4440 O.2   1 <1>  -0.5700 
 10 C        4.1950     1.5330     0.2980 C.2   1 <1>   0.1410 
 11 N        4.8280    -0.2610    -0.7740 N.pl3 1 <1>   0.0330 
 12 N        5.5600     1.4770     0.3990 N.2   1 <1>  -0.5650 
 13 C        5.8930     0.4050    -0.2440 C.2   1 <1>   0.0060 
 14 C        7.3370    -0.0520    -0.3930 C.3   1 <1>   0.5230 
 15 N        8.1400     0.7510     0.5610 N.4   1 <1>  -0.9060 
 16 C        9.5660     0.9580     0.1630 C.3   1 <1>   0.3430 
 17 C       10.4200    -0.3200     0.2770 C.3   1 <1>   0.1200 
 18 O        9.7830    -1.3870    -0.3620 O.3   1 <1>  -0.5600 
 19 C       10.5360    -2.5620    -0.3830 C.3   1 <1>   0.0400 
 20 H       -0.0360     2.7160     1.3400 H     1 <1>   0.0800 
 21 H        0.6900     3.9830     0.3730 H     1 <1>   0.0800 
 22 H        1.2410     3.6940     2.0110 H     1 <1>   0.0800 
 23 H        1.0180    -0.6670    -1.9950 H     1 <1>   0.0800 
 24 H        1.7740    -1.7390    -0.8380 H     1 <1>   0.0800 
 25 H        2.6720    -1.1560    -2.2330 H     1 <1>   0.0800 
 26 H        4.8180    -1.1270    -1.3210 H     1 <1>   0.2700 
 27 H        7.6690     0.1290    -1.4020 H     1 <1>   0.0800 
 28 H        7.4360    -1.1030    -0.1750 H     1 <1>   0.0800 
 29 H        8.0600     0.3210     1.4860 H     1 <1>   0.4500 
 30 H        7.6110     1.6400     0.6310 H     1 <1>   0.4500 
 31 H       10.0060     1.7180     0.7900 H     1 <1>   0.0800 
 32 H        9.6100     1.3160    -0.8520 H     1 <1>   0.0800 
 33 H       10.5710    -0.5790     1.3110 H     1 <1>   0.0800 
 34 H       11.3780    -0.1600    -0.1870 H     1 <1>   0.0800 
 35 H        9.9650    -3.3230    -0.8860 H     1 <1>   0.0800 
 36 H       10.7420    -2.8760     0.6270 H     1 <1>   0.0800 
 37 H       11.4540    -2.3920    -0.9190 H     1 <1>   0.0800 
@<TRIPOS>BOND
  1   1   2  2   
  2   2   3  am  
  3   2   4  am  
  4   3   5  am  
  5   3   6  1   
  6   4   7  1   
  7   4   8  1   
  8   5   9  2   
  9   5  10  1   
 10   6  20  1   
 11   6  21  1   
 12   6  22  1   
 13   7  10  2   
 14   7  11  1   
 15   8  23  1   
 16   8  24  1   
 17   8  25  1   
 18  10  12  1   
 19  11  13  1   
 20  11  26  1   
 21  12  13  2   
 22  13  14  1   
 23  14  15  1   
 24  14  27  1   
 25  14  28  1   
 26  15  16  1   
 27  15  29  1   
 28  15  30  1   
 29  16  17  1   
 30  16  31  1   
 31  16  32  1   
 32  17  18  1   
 33  17  33  1   
 34  17  34  1   
 35  18  19  1   
 36  19  35  1   
 37  19  36  1   
 38  19  37  1   
@<TRIPOS>SUBSTRUCTURE
  1 ****  13 GROUP 4 **** **** 0

# MOE 2024.06 (io_trps.svl 2023.06)
