@<TRIPOS>MOLECULE
6-Chloro-4-[2-(4-methyl-piperazin-1-yl)-2-oxo-ethyl]-4H-benzo[1,4]oxazin-3-one
41 43 1 0 0 
SMALL
USER_CHARGES


@<TRIPOS>ATOM
  1 CL       0.4740     3.1820    -3.3810 Cl    1 <1>  -0.1770 
  2 C        1.1110     3.5400    -1.7960 C.ar  1 <1>   0.1770 
  3 C        2.1810     2.8080    -1.3190 C.ar  1 <1>  -0.1500 
  4 C        0.5300     4.5480    -1.0500 C.ar  1 <1>  -0.1500 
  5 C        2.6960     3.0710    -0.0520 C.ar  1 <1>   0.1170 
  6 C        1.0430     4.8370     0.2020 C.ar  1 <1>  -0.1500 
  7 N        3.7660     2.3380     0.5160 N.am  1 <1>  -0.4770 
  8 C        2.1220     4.1170     0.6880 C.ar  1 <1>   0.0830 
  9 C        4.4440     2.8580     1.5890 C.2   1 <1>   0.5690 
 10 C        4.0540     0.9350     0.0610 C.3   1 <1>   0.2010 
 11 O        2.6110     4.4580     1.9080 O.3   1 <1>  -0.3630 
 12 O        5.4030     2.3070     2.0850 O.2   1 <1>  -0.5700 
 13 C        3.9870     4.1990     2.1600 C.3   1 <1>   0.1810 
 14 C        5.2360     0.8490    -0.9130 C.2   1 <1>   0.5690 
 15 O        5.0340     1.2230    -2.0430 O.2   1 <1>  -0.5700 
 16 N        6.4820     0.3730    -0.5560 N.am  1 <1>  -0.6600 
 17 C        7.6120     0.4030    -1.5370 C.3   1 <1>   0.1400 
 18 C        6.9330     0.0170     0.8260 C.3   1 <1>   0.1400 
 19 C        8.6900     1.3980    -1.0690 C.3   1 <1>   0.3430 
 20 C        8.0190     1.0040     1.3010 C.3   1 <1>   0.3430 
 21 N        9.1720     1.0980     0.3300 N.4   1 <1>  -0.9590 
 22 C       10.1570     2.1260     0.7840 C.3   1 <1>   0.2630 
 23 H        2.5990     2.0480    -1.9520 H     1 <1>   0.1500 
 24 H       -0.3060     5.0970    -1.4470 H     1 <1>   0.1500 
 25 H        0.6150     5.6220     0.8010 H     1 <1>   0.1500 
 26 H        3.1870     0.5360    -0.4320 H     1 <1>   0.0800 
 27 H        4.2170     0.3130     0.9180 H     1 <1>   0.0800 
 28 H        4.5560     4.9920     1.7120 H     1 <1>   0.0800 
 29 H        4.1330     4.2140     3.2240 H     1 <1>   0.0800 
 30 H        7.2690     0.6940    -2.5150 H     1 <1>   0.0800 
 31 H        8.0340    -0.5830    -1.6280 H     1 <1>   0.0800 
 32 H        7.3320    -0.9830     0.8210 H     1 <1>   0.0800 
 33 H        6.1210     0.0270     1.5260 H     1 <1>   0.0800 
 34 H        8.2670     2.3890    -1.1030 H     1 <1>   0.0800 
 35 H        9.5180     1.3690    -1.7570 H     1 <1>   0.0800 
 36 H        8.3770     0.6950     2.2690 H     1 <1>   0.0800 
 37 H        7.5670     1.9750     1.4160 H     1 <1>   0.0800 
 38 H        9.6370     0.1800     0.3090 H     1 <1>   0.4500 
 39 H        9.6930     3.0990     0.8180 H     1 <1>   0.0800 
 40 H       10.9960     2.1670     0.1080 H     1 <1>   0.0800 
 41 H       10.5220     1.8850     1.7700 H     1 <1>   0.0800 
@<TRIPOS>BOND
  1   1   2  1   
  2   2   3  ar  
  3   2   4  ar  
  4   3   5  ar  
  5   3  23  1   
  6   4   6  ar  
  7   4  24  1   
  8   5   7  1   
  9   5   8  ar  
 10   6   8  ar  
 11   6  25  1   
 12   7   9  am  
 13   7  10  1   
 14   8  11  1   
 15   9  12  2   
 16   9  13  1   
 17  10  14  1   
 18  10  26  1   
 19  10  27  1   
 20  11  13  1   
 21  13  28  1   
 22  13  29  1   
 23  14  15  2   
 24  14  16  am  
 25  16  17  1   
 26  16  18  1   
 27  17  19  1   
 28  17  30  1   
 29  17  31  1   
 30  18  20  1   
 31  18  32  1   
 32  18  33  1   
 33  19  21  1   
 34  19  34  1   
 35  19  35  1   
 36  20  21  1   
 37  20  36  1   
 38  20  37  1   
 39  21  22  1   
 40  21  38  1   
 41  22  39  1   
 42  22  40  1   
 43  22  41  1   
@<TRIPOS>SUBSTRUCTURE
  1 ****   7 GROUP 4 **** **** 0

# MOE 2024.06 (io_trps.svl 2023.06)
