@<TRIPOS>MOLECULE
(Tetrahydro-pyran-2-ylmethoxy)-acetic acid
25 25 1 0 0 
SMALL
USER_CHARGES


@<TRIPOS>ATOM
  1 O        0.7310     0.2980     0.6270 O.co2 1 <1>  -0.9000 
  2 C        0.5450     1.4930     0.9000 C.2   1 <1>   0.9060 
  3 O        1.1380     2.0460     1.8370 O.co2 1 <1>  -0.9000 
  4 C       -0.3380     2.3420    -0.0210 C.3   1 <1>   0.0140 
  5 O       -1.6690     2.5460     0.4220 O.3   1 <1>  -0.5600 
  6 C       -2.3020     3.6270    -0.1900 C.3   1 <1>   0.1200 
  7 C       -3.7580     3.7260     0.2890 C.3   1 <1>   0.2000 
  8 O       -4.5640     2.8750    -0.4790 O.3   1 <1>  -0.5600 
  9 C       -4.3110     5.1550     0.1590 C.3   1 <1>  -0.1600 
 10 C       -5.8760     2.7580    -0.0270 C.3   1 <1>   0.1200 
 11 C       -5.7860     5.2090     0.5790 C.3   1 <1>  -0.1600 
 12 C       -6.5750     4.1170    -0.1530 C.3   1 <1>  -0.1600 
 13 H       -0.3790     1.8630    -0.9800 H     1 <1>   0.0800 
 14 H        0.1440     3.2950    -0.1190 H     1 <1>   0.0800 
 15 H       -2.2660     3.5030    -1.2580 H     1 <1>   0.0800 
 16 H       -1.7620     4.5130     0.0940 H     1 <1>   0.0800 
 17 H       -3.8020     3.4080     1.3170 H     1 <1>   0.0800 
 18 H       -4.2110     5.4760    -0.8630 H     1 <1>   0.0800 
 19 H       -3.7360     5.8210     0.7760 H     1 <1>   0.0800 
 20 H       -5.8580     2.4150     0.9930 H     1 <1>   0.0800 
 21 H       -6.3670     2.0200    -0.6370 H     1 <1>   0.0800 
 22 H       -6.2010     6.1780     0.3610 H     1 <1>   0.0800 
 23 H       -5.8560     5.0440     1.6410 H     1 <1>   0.0800 
 24 H       -7.5710     4.0500     0.2480 H     1 <1>   0.0800 
 25 H       -6.6560     4.3640    -1.1980 H     1 <1>   0.0800 
@<TRIPOS>BOND
  1   1   2  ar  
  2   2   3  ar  
  3   2   4  1   
  4   4   5  1   
  5   4  13  1   
  6   4  14  1   
  7   5   6  1   
  8   6   7  1   
  9   6  15  1   
 10   6  16  1   
 11   7   8  1   
 12   7   9  1   
 13   7  17  1   
 14   8  10  1   
 15   9  11  1   
 16   9  18  1   
 17   9  19  1   
 18  10  12  1   
 19  10  20  1   
 20  10  21  1   
 21  11  12  1   
 22  11  22  1   
 23  11  23  1   
 24  12  24  1   
 25  12  25  1   
@<TRIPOS>SUBSTRUCTURE
  1 ****   6 GROUP 4 **** **** 0

# MOE 2024.06 (io_trps.svl 2023.06)
