@<TRIPOS>MOLECULE
Cyclohexanecarboxylic acid [2-(5-benzenesulfonylamino-1-methyl-1H-benzoimidazol-
59 62 1 0 0 
SMALL
USER_CHARGES


@<TRIPOS>ATOM
  1 S       -0.4990    -0.3370    -1.3750 S.o2  1 <1>   1.4470 
  2 O       -0.4640    -1.3720    -2.3820 O.2   1 <1>  -0.6500 
  3 O       -1.5410     0.6620    -1.3670 O.2   1 <1>  -0.6500 
  4 N        0.9400     0.5840    -1.5370 N.am  1 <1>  -0.7570 
  5 C       -0.3060    -1.0430     0.2850 C.ar  1 <1>  -0.0090 
  6 C        2.2290     0.0700    -1.4440 C.ar  1 <1>   0.1990 
  7 C        0.5240    -2.1370     0.5030 C.ar  1 <1>  -0.1500 
  8 C       -0.9560    -0.4930     1.3840 C.ar  1 <1>  -0.1500 
  9 C        3.1080     0.5770    -0.5090 C.ar  1 <1>  -0.1500 
 10 C        2.6480    -0.9660    -2.2960 C.ar  1 <1>  -0.1500 
 11 C        0.7010    -2.6650     1.7710 C.ar  1 <1>  -0.1500 
 12 C       -0.7860    -1.0150     2.6550 C.ar  1 <1>  -0.1500 
 13 C        4.3890     0.0450    -0.4100 C.ar  1 <1>   0.2270 
 14 C        3.9140    -1.5000    -2.2050 C.ar  1 <1>  -0.1500 
 15 C        0.0450    -2.1030     2.8490 C.ar  1 <1>  -0.1500 
 16 N        5.3990     0.3870     0.4350 N.2   1 <1>  -0.5650 
 17 C        4.7850    -0.9810    -1.2440 C.ar  1 <1>  -0.1520 
 18 C        6.3680    -0.4020     0.1210 C.2   1 <1>   0.0060 
 19 N        6.0690    -1.2660    -0.8920 N.pl3 1 <1>   0.0480 
 20 C        7.7300    -0.3840     0.8040 C.3   1 <1>   0.0200 
 21 C        6.9110    -2.2970    -1.5300 C.3   1 <1>   0.0160 
 22 C        7.8230     0.6980     1.8840 C.3   1 <1>   0.1400 
 23 N        9.1860     0.7090     2.4740 N.am  1 <1>  -0.7300 
 24 C       10.2330     1.5260     2.2020 C.2   1 <1>   0.5690 
 25 O       11.2370     1.4130     2.8610 O.2   1 <1>  -0.5700 
 26 C       10.1600     2.5770     1.0880 C.3   1 <1>  -0.0190 
 27 C       11.5160     2.7870     0.3830 C.3   1 <1>  -0.1600 
 28 C        9.6290     3.9180     1.6320 C.3   1 <1>  -0.1600 
 29 C       11.4170     3.8420    -0.7280 C.3   1 <1>  -0.1600 
 30 C        9.5290     4.9770     0.5250 C.3   1 <1>  -0.1600 
 31 C       10.8770     5.1700    -0.1810 C.3   1 <1>  -0.1600 
 32 H        0.7800     1.5190    -1.1770 H     1 <1>   0.4200 
 33 H        1.0420    -2.5830    -0.3300 H     1 <1>   0.1500 
 34 H       -1.6060     0.3550     1.2470 H     1 <1>   0.1500 
 35 H        2.8330     1.3710     0.1580 H     1 <1>   0.1500 
 36 H        1.9610    -1.3390    -3.0350 H     1 <1>   0.1500 
 37 H        1.3500    -3.5120     1.9160 H     1 <1>   0.1500 
 38 H       -1.2990    -0.5740     3.4930 H     1 <1>   0.1500 
 39 H        4.2280    -2.2940    -2.8580 H     1 <1>   0.1500 
 40 H        0.1800    -2.5110     3.8360 H     1 <1>   0.1500 
 41 H        8.4850    -0.2010     0.0610 H     1 <1>   0.0800 
 42 H        7.9070    -1.3430     1.2550 H     1 <1>   0.0800 
 43 H        7.1190    -2.0050    -2.5430 H     1 <1>   0.0800 
 44 H        6.3840    -3.2340    -1.5290 H     1 <1>   0.0800 
 45 H        7.8350    -2.4110    -0.9940 H     1 <1>   0.0800 
 46 H        7.1010     0.5030     2.6580 H     1 <1>   0.0800 
 47 H        7.5930     1.6590     1.4560 H     1 <1>   0.0800 
 48 H        9.3440     0.0610     3.2490 H     1 <1>   0.3700 
 49 H        9.4740     2.2230     0.3410 H     1 <1>   0.0800 
 50 H       11.8530     1.8540    -0.0340 H     1 <1>   0.0800 
 51 H       12.2490     3.1050     1.1060 H     1 <1>   0.0800 
 52 H       10.2930     4.2700     2.4040 H     1 <1>   0.0800 
 53 H        8.6600     3.7720     2.0760 H     1 <1>   0.0800 
 54 H       10.7630     3.4840    -1.5060 H     1 <1>   0.0800 
 55 H       12.3890     4.0000    -1.1620 H     1 <1>   0.0800 
 56 H        9.2090     5.9120     0.9500 H     1 <1>   0.0800 
 57 H        8.7900     4.6720    -0.1960 H     1 <1>   0.0800 
 58 H       10.7650     5.8740    -0.9880 H     1 <1>   0.0800 
 59 H       11.5880     5.5800     0.5170 H     1 <1>   0.0800 
@<TRIPOS>BOND
  1   1   2  2   
  2   1   3  2   
  3   1   4  am  
  4   1   5  1   
  5   4   6  1   
  6   4  32  1   
  7   5   7  ar  
  8   5   8  ar  
  9   6   9  ar  
 10   6  10  ar  
 11   7  11  ar  
 12   7  33  1   
 13   8  12  ar  
 14   8  34  1   
 15   9  13  ar  
 16   9  35  1   
 17  10  14  ar  
 18  10  36  1   
 19  11  15  ar  
 20  11  37  1   
 21  12  15  ar  
 22  12  38  1   
 23  13  16  1   
 24  13  17  ar  
 25  14  17  ar  
 26  14  39  1   
 27  15  40  1   
 28  16  18  2   
 29  17  19  1   
 30  18  19  1   
 31  18  20  1   
 32  19  21  1   
 33  20  22  1   
 34  20  41  1   
 35  20  42  1   
 36  21  43  1   
 37  21  44  1   
 38  21  45  1   
 39  22  23  1   
 40  22  46  1   
 41  22  47  1   
 42  23  24  am  
 43  23  48  1   
 44  24  25  2   
 45  24  26  1   
 46  26  27  1   
 47  26  28  1   
 48  26  49  1   
 49  27  29  1   
 50  27  50  1   
 51  27  51  1   
 52  28  30  1   
 53  28  52  1   
 54  28  53  1   
 55  29  31  1   
 56  29  54  1   
 57  29  55  1   
 58  30  31  1   
 59  30  56  1   
 60  30  57  1   
 61  31  58  1   
 62  31  59  1   
@<TRIPOS>SUBSTRUCTURE
  1 ****  16 GROUP 4 **** **** 0

# MOE 2024.06 (io_trps.svl 2023.06)
