@<TRIPOS>MOLECULE
5-Oxo-1-(toluene-4-sulfonyl)-pyrrolidine-2-carboxylic acid (2,4-dimethoxy-phenyl
51 53 1 0 0 
SMALL
USER_CHARGES


@<TRIPOS>ATOM
  1 S        0.7960     1.1580    -1.1330 S.o2  1 <1>   1.4470 
  2 O        2.1120     1.2590    -1.7210 O.2   1 <1>  -0.6500 
  3 O       -0.2740     1.9460    -1.6930 O.2   1 <1>  -0.6500 
  4 N        1.0230     1.7430     0.4640 N.am  1 <1>  -0.7300 
  5 C        0.3400    -0.5830    -0.9140 C.ar  1 <1>  -0.0090 
  6 C        0.0300     1.7960     1.3510 C.2   1 <1>   0.7450 
  7 C        2.1330     2.6660     0.7760 C.3   1 <1>   0.3370 
  8 C       -0.7870    -1.1140    -1.5290 C.ar  1 <1>  -0.1500 
  9 C        1.1140    -1.4360    -0.1350 C.ar  1 <1>  -0.1500 
 10 O       -0.9870     1.1560     1.3090 O.2   1 <1>  -0.5700 
 11 C        0.3370     2.7890     2.4360 C.3   1 <1>  -0.0990 
 12 C        3.3840     1.8880     1.2520 C.2   1 <1>   0.5690 
 13 C        1.5020     3.5930     1.8380 C.3   1 <1>  -0.1600 
 14 C       -1.1270    -2.4480    -1.3780 C.ar  1 <1>  -0.1500 
 15 C        0.7800    -2.7700     0.0200 C.ar  1 <1>  -0.1500 
 16 O        3.7400     1.9850     2.4050 O.2   1 <1>  -0.5700 
 17 N        4.0240     1.0800     0.3520 N.am  1 <1>  -0.5470 
 18 C       -0.3420    -3.2840    -0.6040 C.ar  1 <1>  -0.1430 
 19 C        5.0420     0.1220     0.5210 C.ar  1 <1>   0.1170 
 20 C       -0.7190    -4.7450    -0.4340 C.3   1 <1>  -0.0970 
 21 C        5.0850    -0.9740    -0.3490 C.ar  1 <1>   0.0830 
 22 C        6.0090     0.2260     1.5140 C.ar  1 <1>  -0.1500 
 23 O        4.1160    -1.0370    -1.3100 O.3   1 <1>  -0.3620 
 24 C        6.0750    -1.9410    -0.2160 C.ar  1 <1>  -0.1500 
 25 C        6.9910    -0.7390     1.6460 C.ar  1 <1>  -0.1500 
 26 C        3.9390    -2.1790    -2.1190 C.3   1 <1>   0.0400 
 27 C        7.0320    -1.8240     0.7870 C.ar  1 <1>   0.0830 
 28 O        8.0320    -2.7210     0.9900 O.3   1 <1>  -0.3620 
 29 C        8.1880    -3.8470     0.1550 C.3   1 <1>   0.0400 
 30 H        2.3970     3.2430    -0.0940 H     1 <1>   0.0800 
 31 H       -1.4110    -0.4750    -2.1310 H     1 <1>   0.1500 
 32 H        1.9930    -1.0570     0.3580 H     1 <1>   0.1500 
 33 H        0.6450     2.2570     3.3180 H     1 <1>   0.0800 
 34 H       -0.5160     3.4050     2.6500 H     1 <1>   0.0800 
 35 H        1.1130     4.4630     1.3380 H     1 <1>   0.0800 
 36 H        2.2010     3.9250     2.5860 H     1 <1>   0.0800 
 37 H       -2.0080    -2.8290    -1.8640 H     1 <1>   0.1500 
 38 H        1.3990    -3.4030     0.6330 H     1 <1>   0.1500 
 39 H        3.5860     1.0160    -0.5820 H     1 <1>   0.3700 
 40 H       -1.4440    -4.8430     0.3540 H     1 <1>   0.0800 
 41 H        0.1460    -5.3330    -0.1850 H     1 <1>   0.0800 
 42 H       -1.1410    -5.1310    -1.3450 H     1 <1>   0.0800 
 43 H        6.0010     1.0620     2.1880 H     1 <1>   0.1500 
 44 H        6.1050    -2.7740    -0.8860 H     1 <1>   0.1500 
 45 H        7.7350    -0.6530     2.4180 H     1 <1>   0.1500 
 46 H        3.0710    -2.0180    -2.7330 H     1 <1>   0.0800 
 47 H        3.7830    -3.0350    -1.4860 H     1 <1>   0.0800 
 48 H        4.8070    -2.3060    -2.7410 H     1 <1>   0.0800 
 49 H        9.0440    -4.3990     0.4980 H     1 <1>   0.0800 
 50 H        8.3500    -3.5130    -0.8540 H     1 <1>   0.0800 
 51 H        7.3070    -4.4590     0.2260 H     1 <1>   0.0800 
@<TRIPOS>BOND
  1   1   2  2   
  2   1   3  2   
  3   1   4  am  
  4   1   5  1   
  5   4   6  am  
  6   4   7  1   
  7   5   8  ar  
  8   5   9  ar  
  9   6  10  2   
 10   6  11  1   
 11   7  12  1   
 12   7  13  1   
 13   7  30  1   
 14   8  14  ar  
 15   8  31  1   
 16   9  15  ar  
 17   9  32  1   
 18  11  13  1   
 19  11  33  1   
 20  11  34  1   
 21  12  16  2   
 22  12  17  am  
 23  13  35  1   
 24  13  36  1   
 25  14  18  ar  
 26  14  37  1   
 27  15  18  ar  
 28  15  38  1   
 29  17  19  1   
 30  17  39  1   
 31  18  20  1   
 32  19  21  ar  
 33  19  22  ar  
 34  20  40  1   
 35  20  41  1   
 36  20  42  1   
 37  21  23  1   
 38  21  24  ar  
 39  22  25  ar  
 40  22  43  1   
 41  23  26  1   
 42  24  27  ar  
 43  24  44  1   
 44  25  27  ar  
 45  25  45  1   
 46  26  46  1   
 47  26  47  1   
 48  26  48  1   
 49  27  28  1   
 50  28  29  1   
 51  29  49  1   
 52  29  50  1   
 53  29  51  1   
@<TRIPOS>SUBSTRUCTURE
  1 ****  17 GROUP 4 **** **** 0

# MOE 2024.06 (io_trps.svl 2023.06)
