@<TRIPOS>MOLECULE
7-(3-Chloro-benzyl)-8-(2,6-dimethyl-morpholin-4-ylmethyl)-1,3-dimethyl-3,7-dihyd
57 60 1 0 0 
SMALL
USER_CHARGES


@<TRIPOS>ATOM
  1 CL       2.2090    -2.7670    -3.5250 Cl    1 <1>  -0.1770 
  2 C        1.7540    -3.1920    -1.8970 C.ar  1 <1>   0.1770 
  3 C        0.5170    -3.7690    -1.6740 C.ar  1 <1>  -0.1500 
  4 C        2.6360    -2.9570    -0.8610 C.ar  1 <1>  -0.1500 
  5 C        0.1540    -4.1340    -0.3840 C.ar  1 <1>  -0.1440 
  6 C        2.2700    -3.3080     0.4280 C.ar  1 <1>  -0.1500 
  7 C        1.0350    -3.8920     0.6630 C.ar  1 <1>  -0.1500 
  8 C       -1.1900    -4.7910    -0.1190 C.3   1 <1>   0.4980 
  9 N       -1.1030    -6.2850    -0.1630 N.pl3 1 <1>  -0.7640 
 10 C       -2.1990    -7.0740     0.2190 C.2   1 <1>   0.2770 
 11 C       -0.1370    -7.1310    -0.5350 C.cat 1 <1>   0.6560 
 12 C       -3.5230    -6.7960     0.6960 C.2   1 <1>   0.7030 
 13 C       -1.8320    -8.3660     0.0610 C.2   1 <1>   0.4260 
 14 N       -0.5640    -8.3810    -0.4060 N.pl3 1 <1>  -0.7000 
 15 C        1.2880    -6.8760    -1.0700 C.3   1 <1>   0.2540 
 16 O       -3.8930    -5.6470     0.8660 O.2   1 <1>  -0.5700 
 17 N       -4.3680    -7.8660     0.9580 N.am  1 <1>  -0.4200 
 18 N       -2.6540    -9.4410     0.3430 N.am  1 <1>  -0.4360 
 19 N        2.0610    -8.1440    -1.1610 N.3   1 <1>  -0.8100 
 20 C       -3.9410    -9.1790     0.7910 C.2   1 <1>   0.6900 
 21 C       -5.7610    -7.6230     1.4530 C.3   1 <1>   0.0600 
 22 C       -2.1750   -10.8410     0.1440 C.3   1 <1>   0.0600 
 23 C        3.0400    -8.1670    -2.2640 C.3   1 <1>   0.1100 
 24 C        2.7430    -8.5040     0.1100 C.3   1 <1>   0.1100 
 25 O       -4.6960   -10.0970     1.0370 O.2   1 <1>  -0.5700 
 26 C        3.6700    -9.5770    -2.4220 C.3   1 <1>   0.2000 
 27 C        3.8040    -9.6260    -0.0530 C.3   1 <1>   0.2000 
 28 O        3.6050   -10.3320    -1.2400 O.3   1 <1>  -0.5600 
 29 C        5.1270    -9.5280    -2.8870 C.3   1 <1>  -0.2400 
 30 C        3.7540   -10.6440     1.0830 C.3   1 <1>  -0.2400 
 31 H       -0.1400    -3.9250    -2.5130 H     1 <1>   0.1500 
 32 H        3.5900    -2.5020    -1.0610 H     1 <1>   0.1500 
 33 H        2.9460    -3.1200     1.2460 H     1 <1>   0.1500 
 34 H        0.7700    -4.1530     1.6750 H     1 <1>   0.1500 
 35 H       -1.9090    -4.4550    -0.8470 H     1 <1>   0.0800 
 36 H       -1.5440    -4.4830     0.8510 H     1 <1>   0.0800 
 37 H        0.0520    -9.1660    -0.6580 H     1 <1>   0.4500 
 38 H        1.8110    -6.1790    -0.4430 H     1 <1>   0.0800 
 39 H        1.1940    -6.4450    -2.0500 H     1 <1>   0.0800 
 40 H       -6.0710    -6.6090     1.2690 H     1 <1>   0.0800 
 41 H       -5.8060    -7.8160     2.5100 H     1 <1>   0.0800 
 42 H       -6.4490    -8.2820     0.9510 H     1 <1>   0.0800 
 43 H       -2.2600   -11.1100    -0.8940 H     1 <1>   0.0800 
 44 H       -2.7630   -11.5310     0.7260 H     1 <1>   0.0800 
 45 H       -1.1490   -10.9340     0.4540 H     1 <1>   0.0800 
 46 H        3.8160    -7.4440    -2.0740 H     1 <1>   0.0800 
 47 H        2.5660    -7.9000    -3.1930 H     1 <1>   0.0800 
 48 H        2.0060    -8.8180     0.8280 H     1 <1>   0.0800 
 49 H        3.2410    -7.6430     0.5210 H     1 <1>   0.0800 
 50 H        3.1000   -10.1240    -3.1530 H     1 <1>   0.0800 
 51 H        4.7880    -9.1900    -0.0890 H     1 <1>   0.0800 
 52 H        5.7370    -8.9820    -2.1920 H     1 <1>   0.0800 
 53 H        5.1880    -9.0480    -3.8460 H     1 <1>   0.0800 
 54 H        5.5080   -10.5290    -2.9850 H     1 <1>   0.0800 
 55 H        2.7960   -11.1300     1.1080 H     1 <1>   0.0800 
 56 H        3.9260   -10.1590     2.0260 H     1 <1>   0.0800 
 57 H        4.5200   -11.3840     0.9380 H     1 <1>   0.0800 
@<TRIPOS>BOND
  1   1   2  1   
  2   2   3  ar  
  3   2   4  ar  
  4   3   5  ar  
  5   3  31  1   
  6   4   6  ar  
  7   4  32  1   
  8   5   7  ar  
  9   5   8  1   
 10   6   7  ar  
 11   6  33  1   
 12   7  34  1   
 13   8   9  1   
 14   8  35  1   
 15   8  36  1   
 16   9  10  1   
 17   9  11  ar  
 18  10  12  1   
 19  10  13  2   
 20  11  14  ar  
 21  11  15  1   
 22  12  16  2   
 23  12  17  am  
 24  13  14  1   
 25  13  18  1   
 26  14  37  1   
 27  15  19  1   
 28  15  38  1   
 29  15  39  1   
 30  17  20  am  
 31  17  21  1   
 32  18  20  am  
 33  18  22  1   
 34  19  23  1   
 35  19  24  1   
 36  20  25  2   
 37  21  40  1   
 38  21  41  1   
 39  21  42  1   
 40  22  43  1   
 41  22  44  1   
 42  22  45  1   
 43  23  26  1   
 44  23  46  1   
 45  23  47  1   
 46  24  27  1   
 47  24  48  1   
 48  24  49  1   
 49  26  28  1   
 50  26  29  1   
 51  26  50  1   
 52  27  28  1   
 53  27  30  1   
 54  27  51  1   
 55  29  52  1   
 56  29  53  1   
 57  29  54  1   
 58  30  55  1   
 59  30  56  1   
 60  30  57  1   
@<TRIPOS>SUBSTRUCTURE
  1 ****  11 GROUP 4 **** **** 0

# MOE 2024.06 (io_trps.svl 2023.06)
