@<TRIPOS>MOLECULE
2-[2-Chloro-4-(piperidine-1-sulfonyl)-phenoxy]-1-morpholin-4-yl-ethanone
49 51 1 0 0 
SMALL
USER_CHARGES


@<TRIPOS>ATOM
  1 CL       1.1650    -1.4660     1.5320 Cl    1 <1>  -0.1770 
  2 C        0.5570    -2.2820     0.1080 C.ar  1 <1>   0.1770 
  3 C        1.4190    -2.6130    -0.9300 C.ar  1 <1>   0.0830 
  4 C       -0.7840    -2.6020     0.0550 C.ar  1 <1>  -0.1500 
  5 O        2.7280    -2.2830    -0.8240 O.3   1 <1>  -0.3630 
  6 C        0.9030    -3.2720    -2.0400 C.ar  1 <1>  -0.1500 
  7 C       -1.3090    -3.2710    -1.0450 C.ar  1 <1>  -0.0090 
  8 C        3.7220    -3.1200    -1.3990 C.3   1 <1>   0.1810 
  9 C       -0.4440    -3.5930    -2.0870 C.ar  1 <1>  -0.1500 
 10 S       -3.0690    -3.6980    -1.1100 S.o2  1 <1>   1.4470 
 11 C        5.1200    -2.7590    -0.9030 C.2   1 <1>   0.5690 
 12 O       -3.8380    -2.4740    -1.1220 O.2   1 <1>  -0.6500 
 13 O       -3.2920    -4.6950    -2.1360 O.2   1 <1>  -0.6500 
 14 N       -3.3200    -4.4530     0.3870 N.am  1 <1>  -0.8490 
 15 O        5.9620    -2.5730    -1.7510 O.2   1 <1>  -0.5700 
 16 N        5.4240    -2.6780     0.4370 N.am  1 <1>  -0.6600 
 17 C       -4.7400    -4.4590     0.7540 C.3   1 <1>   0.1960 
 18 C       -2.7660    -5.8120     0.4200 C.3   1 <1>   0.1960 
 19 C        6.7730    -2.2320     0.8990 C.3   1 <1>   0.1400 
 20 C        4.4640    -2.8960     1.5630 C.3   1 <1>   0.1400 
 21 C       -4.9200    -5.0000     2.1770 C.3   1 <1>  -0.1600 
 22 C       -2.8610    -6.3880     1.8360 C.3   1 <1>  -0.1600 
 23 C        7.2800    -3.1170     2.0490 C.3   1 <1>   0.1200 
 24 C        5.1070    -3.7270     2.6870 C.3   1 <1>   0.1200 
 25 C       -4.3110    -6.3980     2.3330 C.3   1 <1>  -0.1600 
 26 O        6.3340    -3.1790     3.0780 O.3   1 <1>  -0.5600 
 27 H       -1.4270    -2.3330     0.8760 H     1 <1>   0.1500 
 28 H        1.5300    -3.5290    -2.8740 H     1 <1>   0.1500 
 29 H        3.6860    -2.9980    -2.4650 H     1 <1>   0.0800 
 30 H        3.5050    -4.1390    -1.1410 H     1 <1>   0.0800 
 31 H       -0.8350    -4.1020    -2.9540 H     1 <1>   0.1500 
 32 H       -5.2960    -5.0620     0.0540 H     1 <1>   0.0800 
 33 H       -5.1320    -3.4560     0.7190 H     1 <1>   0.0800 
 34 H       -1.7320    -5.7920     0.1190 H     1 <1>   0.0800 
 35 H       -3.3040    -6.4460    -0.2670 H     1 <1>   0.0800 
 36 H        6.7080    -1.2130     1.2400 H     1 <1>   0.0800 
 37 H        7.4820    -2.2660     0.0900 H     1 <1>   0.0800 
 38 H        3.5820    -3.4080     1.2240 H     1 <1>   0.0800 
 39 H        4.1620    -1.9410     1.9570 H     1 <1>   0.0800 
 40 H       -5.9680    -5.0330     2.4150 H     1 <1>   0.0800 
 41 H       -4.4490    -4.3190     2.8650 H     1 <1>   0.0800 
 42 H       -2.2530    -5.7930     2.4950 H     1 <1>   0.0800 
 43 H       -2.4710    -7.3900     1.8410 H     1 <1>   0.0800 
 44 H        8.1850    -2.7080     2.4590 H     1 <1>   0.0800 
 45 H        7.4770    -4.1150     1.6980 H     1 <1>   0.0800 
 46 H        5.2720    -4.7390     2.3630 H     1 <1>   0.0800 
 47 H        4.4660    -3.7400     3.5500 H     1 <1>   0.0800 
 48 H       -4.8830    -7.1040     1.7540 H     1 <1>   0.0800 
 49 H       -4.3460    -6.7030     3.3650 H     1 <1>   0.0800 
@<TRIPOS>BOND
  1   1   2  1   
  2   2   3  ar  
  3   2   4  ar  
  4   3   5  1   
  5   3   6  ar  
  6   4   7  ar  
  7   4  27  1   
  8   5   8  1   
  9   6   9  ar  
 10   6  28  1   
 11   7   9  ar  
 12   7  10  1   
 13   8  11  1   
 14   8  29  1   
 15   8  30  1   
 16   9  31  1   
 17  10  12  2   
 18  10  13  2   
 19  10  14  am  
 20  11  15  2   
 21  11  16  am  
 22  14  17  1   
 23  14  18  1   
 24  16  19  1   
 25  16  20  1   
 26  17  21  1   
 27  17  32  1   
 28  17  33  1   
 29  18  22  1   
 30  18  34  1   
 31  18  35  1   
 32  19  23  1   
 33  19  36  1   
 34  19  37  1   
 35  20  24  1   
 36  20  38  1   
 37  20  39  1   
 38  21  25  1   
 39  21  40  1   
 40  21  41  1   
 41  22  25  1   
 42  22  42  1   
 43  22  43  1   
 44  23  26  1   
 45  23  44  1   
 46  23  45  1   
 47  24  26  1   
 48  24  46  1   
 49  24  47  1   
 50  25  48  1   
 51  25  49  1   
@<TRIPOS>SUBSTRUCTURE
  1 ****   2 GROUP 4 **** **** 0

# MOE 2024.06 (io_trps.svl 2023.06)
