@<TRIPOS>MOLECULE
5-Ethyl-1,2-dimethyl-1H-indole-3-carbaldehyde
30 31 1 0 0 
SMALL
USER_CHARGES


@<TRIPOS>ATOM
  1 O       -0.6880     0.0400    -0.6580 O.2   1 <1>  -0.5700 
  2 C       -1.7810    -0.4210    -0.4230 C.2   1 <1>   0.5960 
  3 C       -2.0960    -1.7990    -0.1770 C.2   1 <1>  -0.0860 
  4 C       -3.4210    -2.2380     0.0910 C.ar  1 <1>   0.0000 
  5 C       -1.3090    -2.9260    -0.1380 C.2   1 <1>  -0.3320 
  6 C       -3.3700    -3.6120     0.2790 C.ar  1 <1>  -0.1520 
  7 C       -4.6540    -1.5800     0.1880 C.ar  1 <1>  -0.1500 
  8 N       -2.0670    -4.0220     0.1360 N.pl3 1 <1>   0.0480 
  9 C        0.1960    -3.0180    -0.3580 C.3   1 <1>  -0.0600 
 10 C       -4.5280    -4.3410     0.5610 C.ar  1 <1>  -0.1500 
 11 C       -5.8000    -2.2920     0.4670 C.ar  1 <1>  -0.1440 
 12 C       -1.6310    -5.4260     0.2680 C.3   1 <1>   0.0160 
 13 C       -5.7300    -3.6780     0.6530 C.ar  1 <1>  -0.1500 
 14 C       -7.1440    -1.5910     0.5750 C.3   1 <1>  -0.0170 
 15 C       -7.9240    -1.7170    -0.7360 C.3   1 <1>  -0.2400 
 16 H       -2.6010     0.2710    -0.3960 H     1 <1>   0.0600 
 17 H       -4.6990    -0.5180     0.0410 H     1 <1>   0.1500 
 18 H        0.6250    -2.0540    -0.5620 H     1 <1>   0.0800 
 19 H        0.4090    -3.6580    -1.1950 H     1 <1>   0.0800 
 20 H        0.6750    -3.4140     0.5190 H     1 <1>   0.0800 
 21 H       -4.4760    -5.4050     0.7040 H     1 <1>   0.1500 
 22 H       -0.5720    -5.5050     0.1140 H     1 <1>   0.0800 
 23 H       -2.1430    -6.0220    -0.4630 H     1 <1>   0.0800 
 24 H       -1.8740    -5.7770     1.2540 H     1 <1>   0.0800 
 25 H       -6.6290    -4.2270     0.8680 H     1 <1>   0.1500 
 26 H       -6.9970    -0.5510     0.8050 H     1 <1>   0.0800 
 27 H       -7.7130    -2.0250     1.3790 H     1 <1>   0.0800 
 28 H       -7.3640    -1.2780    -1.5420 H     1 <1>   0.0800 
 29 H       -8.8700    -1.2120    -0.6550 H     1 <1>   0.0800 
 30 H       -8.1020    -2.7530    -0.9650 H     1 <1>   0.0800 
@<TRIPOS>BOND
  1   1   2  2   
  2   2   3  1   
  3   2  16  1   
  4   3   4  1   
  5   3   5  2   
  6   4   6  ar  
  7   4   7  ar  
  8   5   8  1   
  9   5   9  1   
 10   6   8  1   
 11   6  10  ar  
 12   7  11  ar  
 13   7  17  1   
 14   8  12  1   
 15   9  18  1   
 16   9  19  1   
 17   9  20  1   
 18  10  13  ar  
 19  10  21  1   
 20  11  13  ar  
 21  11  14  1   
 22  12  22  1   
 23  12  23  1   
 24  12  24  1   
 25  13  25  1   
 26  14  15  1   
 27  14  26  1   
 28  14  27  1   
 29  15  28  1   
 30  15  29  1   
 31  15  30  1   
@<TRIPOS>SUBSTRUCTURE
  1 ****   4 GROUP 4 **** **** 0

# MOE 2024.06 (io_trps.svl 2023.06)
