@<TRIPOS>MOLECULE
NONAME
35 38 1 0 0 
SMALL
USER_CHARGES


@<TRIPOS>ATOM
  1 O       -0.9280    -3.0590     0.3170 O.2   1 <1>  -0.5700 
  2 C       -1.4860    -2.2720    -0.3980 C.2   1 <1>   0.5690 
  3 N       -1.7150    -2.4050    -1.7360 N.am  1 <1>  -0.4900 
  4 C       -1.9860    -0.9060    -0.0240 C.3   1 <1>  -0.0190 
  5 C       -2.5520    -1.4340    -2.2020 C.2   1 <1>   0.5690 
  6 C       -2.4300    -0.0560     1.1760 C.3   1 <1>   0.1960 
  7 C       -3.1770    -0.7930    -0.9910 C.3   1 <1>  -0.0190 
  8 O       -2.7930    -1.1920    -3.3530 O.2   1 <1>  -0.5700 
  9 C       -2.7450     1.1610     0.3150 C.2   1 <1>  -0.2760 
 10 C       -3.8680    -0.3060     1.6120 C.2   1 <1>  -0.2880 
 11 C       -3.8290     0.5360    -0.5460 C.3   1 <1>   0.1960 
 12 C       -2.2540     2.4130     0.2690 C.2   1 <1>  -0.1670 
 13 C       -4.6850     0.0940     0.6330 C.2   1 <1>  -0.2880 
 14 C       -2.7310     3.4170    -0.6530 C.ar  1 <1>   0.0280 
 15 C       -1.1500     2.9050     1.1940 C.3   1 <1>  -0.1020 
 16 C       -1.9330     3.8870    -1.6910 C.ar  1 <1>  -0.1500 
 17 C       -4.0150     3.9350    -0.5270 C.ar  1 <1>  -0.1500 
 18 C       -2.4010     4.8440    -2.5740 C.ar  1 <1>  -0.1500 
 19 C       -4.4900     4.8910    -1.4060 C.ar  1 <1>  -0.1500 
 20 C       -3.6820     5.3480    -2.4330 C.ar  1 <1>  -0.1500 
 21 H       -1.3080    -3.1330    -2.3160 H     1 <1>   0.3700 
 22 H       -1.1670    -0.3190    -0.4170 H     1 <1>   0.0800 
 23 H       -1.7090     0.1030     1.9560 H     1 <1>   0.0800 
 24 H       -3.9040    -1.5510    -0.7420 H     1 <1>   0.0800 
 25 H       -4.0770    -0.7260     2.5810 H     1 <1>   0.1500 
 26 H       -4.3060     1.1500    -1.2910 H     1 <1>   0.0800 
 27 H       -5.7600     0.1040     0.5630 H     1 <1>   0.1500 
 28 H       -1.4910     3.7740     1.7290 H     1 <1>   0.0800 
 29 H       -0.2810     3.1770     0.6220 H     1 <1>   0.0800 
 30 H       -0.8630     2.1620     1.9120 H     1 <1>   0.0800 
 31 H       -0.9400     3.4940    -1.8080 H     1 <1>   0.1500 
 32 H       -4.6420     3.5790     0.2720 H     1 <1>   0.1500 
 33 H       -1.7710     5.1950    -3.3720 H     1 <1>   0.1500 
 34 H       -5.4870     5.2810    -1.2920 H     1 <1>   0.1500 
 35 H       -4.0490     6.0910    -3.1190 H     1 <1>   0.1500 
@<TRIPOS>BOND
  1   1   2  2   
  2   2   3  am  
  3   2   4  1   
  4   3   5  am  
  5   3  21  1   
  6   4   6  1   
  7   4   7  1   
  8   4  22  1   
  9   5   7  1   
 10   5   8  2   
 11   6   9  1   
 12   6  10  1   
 13   6  23  1   
 14   7  11  1   
 15   7  24  1   
 16   9  11  1   
 17   9  12  2   
 18  10  13  2   
 19  10  25  1   
 20  11  13  1   
 21  11  26  1   
 22  12  14  1   
 23  12  15  1   
 24  13  27  1   
 25  14  16  ar  
 26  14  17  ar  
 27  15  28  1   
 28  15  29  1   
 29  15  30  1   
 30  16  18  ar  
 31  16  31  1   
 32  17  19  ar  
 33  17  32  1   
 34  18  20  ar  
 35  18  33  1   
 36  19  20  ar  
 37  19  34  1   
 38  20  35  1   
@<TRIPOS>SUBSTRUCTURE
  1 ****   9 GROUP 4 **** **** 0

# MOE 2024.06 (io_trps.svl 2023.06)
