@<TRIPOS>MOLECULE
1-Piperidin-1-yl-4-(3-p-tolyl-[1,2,4]oxadiazol-5-yl)-butan-1-one
46 48 1 0 0 
SMALL
USER_CHARGES


@<TRIPOS>ATOM
  1 O       -0.4650    -1.1120     1.5860 O.2   1 <1>  -0.5700 
  2 C       -1.3130    -1.7080     0.9640 C.2   1 <1>   0.5690 
  3 N       -1.0500    -2.8890     0.3120 N.am  1 <1>  -0.6600 
  4 C       -2.7000    -1.0890     0.9320 C.3   1 <1>  -0.0990 
  5 C       -2.0120    -3.6450    -0.5430 C.3   1 <1>   0.1400 
  6 C        0.2690    -3.5650     0.4540 C.3   1 <1>   0.1400 
  7 C       -2.9290    -0.2520    -0.3440 C.3   1 <1>  -0.1600 
  8 C       -2.2540    -5.0300     0.0640 C.3   1 <1>  -0.1600 
  9 C        0.0650    -4.9570     1.0640 C.3   1 <1>  -0.1600 
 10 C       -4.4210     0.0030    -0.6160 C.3   1 <1>   0.0200 
 11 C       -0.9370    -5.7960     0.2550 C.3   1 <1>  -0.1600 
 12 C       -5.1430    -1.2890    -0.9540 C.2   1 <1>   0.2980 
 13 O       -4.8740    -1.8780    -2.0890 O.3   1 <1>  -0.0190 
 14 N       -5.9780    -1.8890    -0.2130 N.2   1 <1>  -0.5650 
 15 N       -5.5880    -2.9580    -2.0600 N.2   1 <1>  -0.4100 
 16 C       -6.2470    -2.9680    -0.9550 C.2   1 <1>   0.4620 
 17 C       -7.1620    -4.0120    -0.5230 C.ar  1 <1>   0.0540 
 18 C       -7.8430    -3.9360     0.6930 C.ar  1 <1>  -0.1500 
 19 C       -7.3930    -5.1430    -1.3080 C.ar  1 <1>  -0.1500 
 20 C       -8.7080    -4.9350     1.1040 C.ar  1 <1>  -0.1500 
 21 C       -8.2560    -6.1440    -0.9020 C.ar  1 <1>  -0.1500 
 22 C       -8.9210    -6.0470     0.3080 C.ar  1 <1>  -0.1440 
 23 C       -9.8680    -7.1440     0.7580 C.3   1 <1>  -0.0970 
 24 H       -2.8090    -0.4530     1.7930 H     1 <1>   0.0800 
 25 H       -3.4260    -1.8720     1.0370 H     1 <1>   0.0800 
 26 H       -1.5920    -3.7510    -1.5280 H     1 <1>   0.0800 
 27 H       -2.9480    -3.1300    -0.6430 H     1 <1>   0.0800 
 28 H        0.9280    -2.9910     1.0820 H     1 <1>   0.0800 
 29 H        0.7260    -3.6510    -0.5170 H     1 <1>   0.0800 
 30 H       -2.5010    -0.7590    -1.1920 H     1 <1>   0.0800 
 31 H       -2.4130     0.6870    -0.2380 H     1 <1>   0.0800 
 32 H       -2.9090    -5.5900    -0.5800 H     1 <1>   0.0800 
 33 H       -2.7490    -4.9130     1.0120 H     1 <1>   0.0800 
 34 H       -0.2920    -4.8400     2.0720 H     1 <1>   0.0800 
 35 H        1.0110    -5.4670     1.1090 H     1 <1>   0.0800 
 36 H       -4.5280     0.6820    -1.4430 H     1 <1>   0.0800 
 37 H       -4.8790     0.4530     0.2460 H     1 <1>   0.0800 
 38 H       -0.5140    -6.0210    -0.7100 H     1 <1>   0.0800 
 39 H       -1.1260    -6.7260     0.7610 H     1 <1>   0.0800 
 40 H       -7.6950    -3.0810     1.3300 H     1 <1>   0.1500 
 41 H       -6.8890    -5.2410    -2.2540 H     1 <1>   0.1500 
 42 H       -9.2150    -4.8430     2.0490 H     1 <1>   0.1500 
 43 H       -8.4070    -7.0020    -1.5330 H     1 <1>   0.1500 
 44 H      -10.6570    -6.7360     1.3630 H     1 <1>   0.0800 
 45 H       -9.3300    -7.8750     1.3340 H     1 <1>   0.0800 
 46 H      -10.3110    -7.6310    -0.0930 H     1 <1>   0.0800 
@<TRIPOS>BOND
  1   1   2  2   
  2   2   3  am  
  3   2   4  1   
  4   3   5  1   
  5   3   6  1   
  6   4   7  1   
  7   4  24  1   
  8   4  25  1   
  9   5   8  1   
 10   5  26  1   
 11   5  27  1   
 12   6   9  1   
 13   6  28  1   
 14   6  29  1   
 15   7  10  1   
 16   7  30  1   
 17   7  31  1   
 18   8  11  1   
 19   8  32  1   
 20   8  33  1   
 21   9  11  1   
 22   9  34  1   
 23   9  35  1   
 24  10  12  1   
 25  10  36  1   
 26  10  37  1   
 27  11  38  1   
 28  11  39  1   
 29  12  13  1   
 30  12  14  2   
 31  13  15  1   
 32  14  16  1   
 33  15  16  2   
 34  16  17  1   
 35  17  18  ar  
 36  17  19  ar  
 37  18  20  ar  
 38  18  40  1   
 39  19  21  ar  
 40  19  41  1   
 41  20  22  ar  
 42  20  42  1   
 43  21  22  ar  
 44  21  43  1   
 45  22  23  1   
 46  23  44  1   
 47  23  45  1   
 48  23  46  1   
@<TRIPOS>SUBSTRUCTURE
  1 ****  16 GROUP 4 **** **** 0

# MOE 2024.06 (io_trps.svl 2023.06)
