@<TRIPOS>MOLECULE
N-Cyclopropyl-4-dimethylsulfamoyl-benzamide
34 35 1 0 0 
SMALL
USER_CHARGES


@<TRIPOS>ATOM
  1 S       -0.2250    -0.0740     1.4040 S.o2  1 <1>   1.4470 
  2 O       -0.9980     0.8100     2.2500 O.2   1 <1>  -0.6500 
  3 O        0.1930    -1.3630     1.9150 O.2   1 <1>  -0.6500 
  4 N       -1.1580    -0.3770     0.0150 N.am  1 <1>  -0.8490 
  5 C        1.2050     0.8370     0.7520 C.ar  1 <1>  -0.0090 
  6 C       -0.5530    -1.3740    -0.8740 C.3   1 <1>   0.1160 
  7 C       -2.5270    -0.7720     0.3530 C.3   1 <1>   0.1160 
  8 C        2.5040     0.3830     0.9400 C.ar  1 <1>  -0.1500 
  9 C        1.0340     2.0160     0.0390 C.ar  1 <1>  -0.1500 
 10 C        3.5880     1.0810     0.4370 C.ar  1 <1>  -0.1500 
 11 C        2.1160     2.7150    -0.4660 C.ar  1 <1>  -0.1500 
 12 C        3.4230     2.2680    -0.2730 C.ar  1 <1>   0.0860 
 13 C        4.5720     2.9890    -0.7920 C.2   1 <1>   0.5440 
 14 O        5.4940     2.3930    -1.3080 O.2   1 <1>  -0.5700 
 15 N        4.6890     4.3430    -0.7250 N.am  1 <1>  -0.5790 
 16 C        3.9470     5.2770     0.1350 C.3   1 <1>   0.0490 
 17 C        3.3560     6.4910    -0.5010 C.3   1 <1>  -0.2000 
 18 C        4.5550     6.6160     0.3880 C.3   1 <1>  -0.2000 
 19 H        0.4380    -1.0640    -1.1600 H     1 <1>   0.0800 
 20 H       -1.1440    -1.4770    -1.7680 H     1 <1>   0.0800 
 21 H       -0.4900    -2.3310    -0.3830 H     1 <1>   0.0800 
 22 H       -3.0050     0.0060     0.9250 H     1 <1>   0.0800 
 23 H       -2.5240    -1.6780     0.9380 H     1 <1>   0.0800 
 24 H       -3.1020    -0.9310    -0.5430 H     1 <1>   0.0800 
 25 H        2.6710    -0.5310     1.4880 H     1 <1>   0.1500 
 26 H        0.0350     2.3870    -0.1240 H     1 <1>   0.1500 
 27 H        4.5850     0.7040     0.5900 H     1 <1>   0.1500 
 28 H        1.9480     3.6210    -1.0230 H     1 <1>   0.1500 
 29 H        5.5290     4.7210    -1.1640 H     1 <1>   0.3700 
 30 H        3.4200     4.7970     0.9440 H     1 <1>   0.1000 
 31 H        2.4140     6.8610    -0.1370 H     1 <1>   0.1000 
 32 H        3.4750     6.6300    -1.5610 H     1 <1>   0.1000 
 33 H        5.5060     6.8550    -0.0550 H     1 <1>   0.1000 
 34 H        4.4230     7.0730     1.3540 H     1 <1>   0.1000 
@<TRIPOS>BOND
  1   1   2  2   
  2   1   3  2   
  3   1   4  am  
  4   1   5  1   
  5   4   6  1   
  6   4   7  1   
  7   5   8  ar  
  8   5   9  ar  
  9   6  19  1   
 10   6  20  1   
 11   6  21  1   
 12   7  22  1   
 13   7  23  1   
 14   7  24  1   
 15   8  10  ar  
 16   8  25  1   
 17   9  11  ar  
 18   9  26  1   
 19  10  12  ar  
 20  10  27  1   
 21  11  12  ar  
 22  11  28  1   
 23  12  13  1   
 24  13  14  2   
 25  13  15  am  
 26  15  16  1   
 27  15  29  1   
 28  16  17  1   
 29  16  18  1   
 30  16  30  1   
 31  17  18  1   
 32  17  31  1   
 33  17  32  1   
 34  18  33  1   
 35  18  34  1   
@<TRIPOS>SUBSTRUCTURE
  1 ****   9 GROUP 4 **** **** 0

# MOE 2024.06 (io_trps.svl 2023.06)
