@<TRIPOS>MOLECULE
[2-Methyl-4-(morpholine-4-sulfonyl)-phenoxy]-acetic acid methyl ester
41 42 1 0 0 
SMALL
USER_CHARGES


@<TRIPOS>ATOM
  1 S        0.0750    -0.3090     1.8300 S.o2  1 <1>   1.4470 
  2 O       -0.4710     0.3060     3.0200 O.2   1 <1>  -0.6500 
  3 O       -0.1160    -1.7280     1.6150 O.2   1 <1>  -0.6500 
  4 N       -0.6320     0.4810     0.5090 N.am  1 <1>  -0.8490 
  5 C        1.8300     0.1240     1.6770 C.ar  1 <1>  -0.0090 
  6 C       -0.2600    -0.1250    -0.7810 C.3   1 <1>   0.1960 
  7 C       -2.0980     0.5090     0.6260 C.3   1 <1>   0.1960 
  8 C        2.8060    -0.8530     1.5160 C.ar  1 <1>  -0.1500 
  9 C        2.2420     1.4500     1.7070 C.ar  1 <1>  -0.1500 
 10 C       -0.9400     0.6080    -1.9510 C.3   1 <1>   0.1200 
 11 C       -2.7400     1.2160    -0.5820 C.3   1 <1>   0.1200 
 12 C        4.1470    -0.5300     1.3870 C.ar  1 <1>  -0.1430 
 13 C        3.5760     1.7940     1.5830 C.ar  1 <1>  -0.1500 
 14 O       -2.3300     0.6200    -1.7810 O.3   1 <1>  -0.5600 
 15 C        4.5420     0.8040     1.4220 C.ar  1 <1>   0.0830 
 16 C        5.1760    -1.6380     1.2120 C.3   1 <1>  -0.0970 
 17 O        5.8700     1.0670     1.3000 O.3   1 <1>  -0.3630 
 18 C        6.4010     2.3850     1.2900 C.3   1 <1>   0.1810 
 19 C        6.1240     3.1100    -0.0200 C.2   1 <1>   0.6590 
 20 O        5.4080     4.0800    -0.0640 O.2   1 <1>  -0.5700 
 21 O        6.7330     2.6350    -1.1020 O.3   1 <1>  -0.4300 
 22 C        6.5560     3.2240    -2.3740 C.3   1 <1>   0.0400 
 23 H       -0.5520    -1.1620    -0.8070 H     1 <1>   0.0800 
 24 H        0.8080    -0.0740    -0.9110 H     1 <1>   0.0800 
 25 H       -2.3780     1.0340     1.5230 H     1 <1>   0.0800 
 26 H       -2.4830    -0.4950     0.6940 H     1 <1>   0.0800 
 27 H        2.5030    -1.8870     1.4920 H     1 <1>   0.1500 
 28 H        1.5030     2.2240     1.8310 H     1 <1>   0.1500 
 29 H       -0.7280     0.1080    -2.8790 H     1 <1>   0.0800 
 30 H       -0.5920     1.6240    -2.0150 H     1 <1>   0.0800 
 31 H       -2.4610     2.2550    -0.6010 H     1 <1>   0.0800 
 32 H       -3.8110     1.1440    -0.5290 H     1 <1>   0.0800 
 33 H        3.8330     2.8360     1.6140 H     1 <1>   0.1500 
 34 H        4.7100    -2.6060     1.1960 H     1 <1>   0.0800 
 35 H        5.8820    -1.6110     2.0220 H     1 <1>   0.0800 
 36 H        5.7080    -1.4980     0.2880 H     1 <1>   0.0800 
 37 H        7.4630     2.3000     1.4190 H     1 <1>   0.0800 
 38 H        5.9970     2.9300     2.1220 H     1 <1>   0.0800 
 39 H        7.1430     2.6760    -3.0880 H     1 <1>   0.0800 
 40 H        6.8830     4.2490    -2.3320 H     1 <1>   0.0800 
 41 H        5.5130     3.1780    -2.6350 H     1 <1>   0.0800 
@<TRIPOS>BOND
  1   1   2  2   
  2   1   3  2   
  3   1   4  am  
  4   1   5  1   
  5   4   6  1   
  6   4   7  1   
  7   5   8  ar  
  8   5   9  ar  
  9   6  10  1   
 10   6  23  1   
 11   6  24  1   
 12   7  11  1   
 13   7  25  1   
 14   7  26  1   
 15   8  12  ar  
 16   8  27  1   
 17   9  13  ar  
 18   9  28  1   
 19  10  14  1   
 20  10  29  1   
 21  10  30  1   
 22  11  14  1   
 23  11  31  1   
 24  11  32  1   
 25  12  15  ar  
 26  12  16  1   
 27  13  15  ar  
 28  13  33  1   
 29  15  17  1   
 30  16  34  1   
 31  16  35  1   
 32  16  36  1   
 33  17  18  1   
 34  18  19  1   
 35  18  37  1   
 36  18  38  1   
 37  19  20  2   
 38  19  21  1   
 39  21  22  1   
 40  22  39  1   
 41  22  40  1   
 42  22  41  1   
@<TRIPOS>SUBSTRUCTURE
  1 ****   9 GROUP 4 **** **** 0

# MOE 2024.06 (io_trps.svl 2023.06)
