@<TRIPOS>MOLECULE
6-(4-tert-Butylamino-6-isopropylamino-[1,3,5]triazin-2-yloxy)-2-phenyl-2H-pyrida
54 56 1 0 0 
SMALL
USER_CHARGES


@<TRIPOS>ATOM
  1 O       -1.2570     0.2590    -1.7090 O.2   1 <1>  -0.5700 
  2 C       -2.2480    -0.4180    -1.4580 C.2   1 <1>   0.6160 
  3 N       -3.0340    -0.2160    -0.3130 N.am  1 <1>  -0.1150 
  4 C       -2.6380    -1.4550    -2.3420 C.2   1 <1>  -0.1360 
  5 N       -4.1600    -0.9850    -0.0380 N.2   1 <1>  -0.5120 
  6 C       -2.7200     0.8010     0.6220 C.ar  1 <1>   0.1170 
  7 C       -3.7300    -2.2040    -2.0520 C.2   1 <1>  -0.1360 
  8 C       -4.4600    -1.9350    -0.8640 C.2   1 <1>   0.5860 
  9 C       -3.6880     1.7270     1.0000 C.ar  1 <1>  -0.1500 
 10 C       -1.4570     0.8950     1.2010 C.ar  1 <1>  -0.1500 
 11 O       -5.5480    -2.6830    -0.5980 O.3   1 <1>  -0.2320 
 12 C       -3.4040     2.7200     1.9210 C.ar  1 <1>  -0.1500 
 13 C       -1.1680     1.8870     2.1210 C.ar  1 <1>  -0.1500 
 14 C       -5.4300    -3.9910    -0.3400 C.ar  1 <1>   0.7030 
 15 C       -2.1420     2.8010     2.4820 C.ar  1 <1>  -0.1500 
 16 N       -6.5520    -4.6500    -0.3350 N.ar  1 <1>  -0.6200 
 17 N       -4.2380    -4.4870    -0.1380 N.ar  1 <1>  -0.6200 
 18 C       -6.4090    -5.9260    -0.0890 C.ar  1 <1>   0.7200 
 19 C       -4.2440    -5.7720     0.0980 C.ar  1 <1>   0.7200 
 20 N       -5.2870    -6.5470     0.1320 N.ar  1 <1>  -0.6200 
 21 N       -7.4960    -6.7290    -0.0630 N.pl3 1 <1>  -0.8690 
 22 N       -3.0640    -6.3860     0.3210 N.pl3 1 <1>  -0.8690 
 23 C       -8.9120    -6.4140     0.1230 C.3   1 <1>   0.3690 
 24 C       -1.8220    -5.7380     0.7480 C.3   1 <1>   0.2890 
 25 C       -9.6180    -7.7560     0.3080 C.3   1 <1>  -0.2400 
 26 C       -9.4580    -5.7210    -1.1240 C.3   1 <1>  -0.2400 
 27 C       -9.1060    -5.5620     1.3780 C.3   1 <1>  -0.2400 
 28 C       -0.8620    -5.7330    -0.4340 C.3   1 <1>  -0.2400 
 29 C       -1.2590    -6.5320     1.9190 C.3   1 <1>  -0.2400 
 30 H       -2.0360    -1.6030    -3.2180 H     1 <1>   0.1500 
 31 H       -4.0660    -3.0030    -2.6870 H     1 <1>   0.1500 
 32 H       -4.6700     1.6600     0.5680 H     1 <1>   0.1500 
 33 H       -0.6960     0.1890     0.9230 H     1 <1>   0.1500 
 34 H       -4.1650     3.4270     2.2010 H     1 <1>   0.1500 
 35 H       -0.1850     1.9480     2.5550 H     1 <1>   0.1500 
 36 H       -1.9190     3.5730     3.1980 H     1 <1>   0.1500 
 37 H       -7.2600    -7.6890     0.1680 H     1 <1>   0.4000 
 38 H       -3.1440    -7.3770     0.5380 H     1 <1>   0.4000 
 39 H       -2.0160    -4.7250     1.0630 H     1 <1>   0.0800 
 40 H       -9.4740    -8.3770    -0.5580 H     1 <1>   0.0800 
 41 H      -10.6730    -7.6030     0.4400 H     1 <1>   0.0800 
 42 H       -9.2410    -8.2650     1.1760 H     1 <1>   0.0800 
 43 H       -9.2560    -6.3130    -1.9980 H     1 <1>   0.0800 
 44 H       -9.0140    -4.7520    -1.2480 H     1 <1>   0.0800 
 45 H      -10.5210    -5.5880    -1.0380 H     1 <1>   0.0800 
 46 H       -8.6580    -6.0410     2.2290 H     1 <1>   0.0800 
 47 H      -10.1540    -5.4270     1.5730 H     1 <1>   0.0800 
 48 H       -8.6690    -4.5900     1.2520 H     1 <1>   0.0800 
 49 H       -0.6610    -6.7360    -0.7650 H     1 <1>   0.0800 
 50 H        0.0660    -5.2680    -0.1530 H     1 <1>   0.0800 
 51 H       -1.2900    -5.1710    -1.2450 H     1 <1>   0.0800 
 52 H       -1.0470    -7.5450     1.6270 H     1 <1>   0.0800 
 53 H       -1.9610    -6.5330     2.7330 H     1 <1>   0.0800 
 54 H       -0.3470    -6.0770     2.2620 H     1 <1>   0.0800 
@<TRIPOS>BOND
  1   1   2  2   
  2   2   3  am  
  3   2   4  1   
  4   3   5  1   
  5   3   6  1   
  6   4   7  2   
  7   4  30  1   
  8   5   8  2   
  9   6   9  ar  
 10   6  10  ar  
 11   7   8  1   
 12   7  31  1   
 13   8  11  1   
 14   9  12  ar  
 15   9  32  1   
 16  10  13  ar  
 17  10  33  1   
 18  11  14  1   
 19  12  15  ar  
 20  12  34  1   
 21  13  15  ar  
 22  13  35  1   
 23  14  16  ar  
 24  14  17  ar  
 25  15  36  1   
 26  16  18  ar  
 27  17  19  ar  
 28  18  20  ar  
 29  18  21  1   
 30  19  20  ar  
 31  19  22  1   
 32  21  23  1   
 33  21  37  1   
 34  22  24  1   
 35  22  38  1   
 36  23  25  1   
 37  23  26  1   
 38  23  27  1   
 39  24  28  1   
 40  24  29  1   
 41  24  39  1   
 42  25  40  1   
 43  25  41  1   
 44  25  42  1   
 45  26  43  1   
 46  26  44  1   
 47  26  45  1   
 48  27  46  1   
 49  27  47  1   
 50  27  48  1   
 51  28  49  1   
 52  28  50  1   
 53  28  51  1   
 54  29  52  1   
 55  29  53  1   
 56  29  54  1   
@<TRIPOS>SUBSTRUCTURE
  1 ****   8 GROUP 4 **** **** 0

# MOE 2024.06 (io_trps.svl 2023.06)
