@<TRIPOS>MOLECULE
1-(2,5-Dimethoxy-benzenesulfonyl)-piperidine-4-carboxylic acid (2,4-dimethyl-phe
58 60 1 0 0 
SMALL
USER_CHARGES


@<TRIPOS>ATOM
  1 S       -0.0300    -0.6980    -1.2080 S.o2  1 <1>   1.4470 
  2 O        0.1740    -2.0590    -1.6600 O.2   1 <1>  -0.6500 
  3 O       -0.4060     0.2830    -2.2050 O.2   1 <1>  -0.6500 
  4 N        1.4550    -0.1880    -0.5620 N.am  1 <1>  -0.8490 
  5 C       -1.1630    -0.7500     0.2080 C.ar  1 <1>  -0.0090 
  6 C        1.4140     1.2130    -0.1300 C.3   1 <1>   0.1960 
  7 C        2.5410    -0.4310    -1.5170 C.3   1 <1>   0.1960 
  8 C       -1.9130     0.3530     0.6110 C.ar  1 <1>   0.0830 
  9 C       -1.2900    -1.9210     0.9480 C.ar  1 <1>  -0.1500 
 10 C        2.7360     1.6170     0.5270 C.3   1 <1>  -0.1600 
 11 C        3.8960    -0.0740    -0.9020 C.3   1 <1>  -0.1600 
 12 O       -1.8090     1.5310    -0.0390 O.3   1 <1>  -0.3620 
 13 C       -2.7630     0.2860     1.7050 C.ar  1 <1>  -0.1500 
 14 C       -2.1430    -2.0030     2.0440 C.ar  1 <1>   0.0830 
 15 C        3.9230     1.3850    -0.4210 C.3   1 <1>  -0.0190 
 16 C       -2.8670     1.8620    -0.9110 C.3   1 <1>   0.0400 
 17 C       -2.8790    -0.8920     2.4170 C.ar  1 <1>  -0.1500 
 18 O       -2.3080    -3.1230     2.7920 O.3   1 <1>  -0.3630 
 19 C        5.2550     1.7420     0.2380 C.2   1 <1>   0.5690 
 20 C       -1.6010    -4.3080     2.4990 C.3   1 <1>   0.0400 
 21 O        5.6010     1.1320     1.2200 O.2   1 <1>  -0.5700 
 22 N        5.9950     2.7400    -0.3380 N.am  1 <1>  -0.5470 
 23 C        7.2320     3.3110     0.0100 C.ar  1 <1>   0.1170 
 24 C        7.9700     3.9930    -0.9610 C.ar  1 <1>  -0.1430 
 25 C        7.7420     3.2390     1.3030 C.ar  1 <1>  -0.1500 
 26 C        9.1820     4.5770    -0.6250 C.ar  1 <1>  -0.1500 
 27 C        7.4770     4.1100    -2.3990 C.3   1 <1>  -0.0970 
 28 C        8.9520     3.8230     1.6270 C.ar  1 <1>  -0.1500 
 29 C        9.6790     4.4980     0.6640 C.ar  1 <1>  -0.1430 
 30 C       11.0100     5.1390     1.0150 C.3   1 <1>  -0.0970 
 31 H        0.6290     1.3470     0.5940 H     1 <1>   0.0800 
 32 H        1.2080     1.8550    -0.9720 H     1 <1>   0.0800 
 33 H        2.3740     0.1470    -2.4120 H     1 <1>   0.0800 
 34 H        2.5570    -1.4730    -1.7910 H     1 <1>   0.0800 
 35 H       -0.7050    -2.7720     0.6480 H     1 <1>   0.1500 
 36 H        2.8680     1.0390     1.4260 H     1 <1>   0.0800 
 37 H        2.6920     2.6540     0.8090 H     1 <1>   0.0800 
 38 H        4.6720    -0.2320    -1.6300 H     1 <1>   0.0800 
 39 H        4.0860    -0.7360    -0.0740 H     1 <1>   0.0800 
 40 H       -3.3240     1.1540     2.0000 H     1 <1>   0.1500 
 41 H        3.7870     2.0190    -1.2800 H     1 <1>   0.0800 
 42 H       -2.6290     2.7940    -1.3900 H     1 <1>   0.0800 
 43 H       -3.7760     1.9590    -0.3440 H     1 <1>   0.0800 
 44 H       -2.9650     1.0860    -1.6510 H     1 <1>   0.0800 
 45 H       -3.5360    -0.9580     3.2660 H     1 <1>   0.1500 
 46 H       -1.8900    -5.0560     3.2160 H     1 <1>   0.0800 
 47 H       -0.5460    -4.1150     2.5780 H     1 <1>   0.0800 
 48 H       -1.8610    -4.6350     1.5070 H     1 <1>   0.0800 
 49 H        5.6140     3.1150    -1.2000 H     1 <1>   0.3700 
 50 H        7.1940     2.7280     2.0720 H     1 <1>   0.1500 
 51 H        9.7520     5.1000    -1.3720 H     1 <1>   0.1500 
 52 H        7.2890     3.1320    -2.8050 H     1 <1>   0.0800 
 53 H        8.2130     4.5910    -3.0180 H     1 <1>   0.0800 
 54 H        6.5750     4.6930    -2.4330 H     1 <1>   0.0800 
 55 H        9.3220     3.7470     2.6350 H     1 <1>   0.1500 
 56 H       11.8100     4.4560     0.7970 H     1 <1>   0.0800 
 57 H       11.0430     5.3920     2.0590 H     1 <1>   0.0800 
 58 H       11.1540     6.0380     0.4440 H     1 <1>   0.0800 
@<TRIPOS>BOND
  1   1   2  2   
  2   1   3  2   
  3   1   4  am  
  4   1   5  1   
  5   4   6  1   
  6   4   7  1   
  7   5   8  ar  
  8   5   9  ar  
  9   6  10  1   
 10   6  31  1   
 11   6  32  1   
 12   7  11  1   
 13   7  33  1   
 14   7  34  1   
 15   8  12  1   
 16   8  13  ar  
 17   9  14  ar  
 18   9  35  1   
 19  10  15  1   
 20  10  36  1   
 21  10  37  1   
 22  11  15  1   
 23  11  38  1   
 24  11  39  1   
 25  12  16  1   
 26  13  17  ar  
 27  13  40  1   
 28  14  17  ar  
 29  14  18  1   
 30  15  19  1   
 31  15  41  1   
 32  16  42  1   
 33  16  43  1   
 34  16  44  1   
 35  17  45  1   
 36  18  20  1   
 37  19  21  2   
 38  19  22  am  
 39  20  46  1   
 40  20  47  1   
 41  20  48  1   
 42  22  23  1   
 43  22  49  1   
 44  23  24  ar  
 45  23  25  ar  
 46  24  26  ar  
 47  24  27  1   
 48  25  28  ar  
 49  25  50  1   
 50  26  29  ar  
 51  26  51  1   
 52  27  52  1   
 53  27  53  1   
 54  27  54  1   
 55  28  29  ar  
 56  28  55  1   
 57  29  30  1   
 58  30  56  1   
 59  30  57  1   
 60  30  58  1   
@<TRIPOS>SUBSTRUCTURE
  1 ****  10 GROUP 4 **** **** 0

# MOE 2024.06 (io_trps.svl 2023.06)
