@<TRIPOS>MOLECULE
N-tert-Butyl-3-[3-(4-methoxy-phenyl)-[1,2,4]oxadiazol-5-yl]-propionamide
43 44 1 0 0 
SMALL
USER_CHARGES


@<TRIPOS>ATOM
  1 O        0.1640    -0.5810    -1.2140 O.2   1 <1>  -0.5700 
  2 C        0.6730    -1.5160    -0.6510 C.2   1 <1>   0.5690 
  3 N        1.9450    -1.3830    -0.2080 N.am  1 <1>  -0.7300 
  4 C       -0.1350    -2.7880    -0.4680 C.3   1 <1>  -0.0990 
  5 C        2.8960    -2.2430     0.5060 C.3   1 <1>   0.3000 
  6 C       -1.3690    -2.8540    -1.3820 C.3   1 <1>   0.0200 
  7 C        3.4610    -3.2830    -0.4600 C.3   1 <1>  -0.2400 
  8 C        2.2490    -2.8990     1.7280 C.3   1 <1>  -0.2400 
  9 C        4.0210    -1.3220     0.9740 C.3   1 <1>  -0.2400 
 10 C       -2.1020    -4.1680    -1.2070 C.2   1 <1>   0.2980 
 11 O       -1.5500    -5.2600    -1.6690 O.3   1 <1>  -0.0190 
 12 N       -3.2220    -4.3230    -0.6350 N.2   1 <1>  -0.5650 
 13 N       -2.3950    -6.1940    -1.3610 N.2   1 <1>  -0.4100 
 14 C       -3.3870    -5.6450    -0.7520 C.2   1 <1>   0.4620 
 15 C       -4.5550    -6.3400    -0.2370 C.ar  1 <1>   0.0540 
 16 C       -5.5980    -5.6590     0.3950 C.ar  1 <1>  -0.1500 
 17 C       -4.6840    -7.7270    -0.3550 C.ar  1 <1>  -0.1500 
 18 C       -6.7060    -6.3260     0.8840 C.ar  1 <1>  -0.1500 
 19 C       -5.7890    -8.4020     0.1300 C.ar  1 <1>  -0.1500 
 20 C       -6.8140    -7.7000     0.7570 C.ar  1 <1>   0.0820 
 21 O       -7.9300    -8.2790     1.2610 O.3   1 <1>  -0.3620 
 22 C       -8.1350    -9.6720     1.1830 C.3   1 <1>   0.0400 
 23 H        2.3440    -0.4690    -0.4260 H     1 <1>   0.3700 
 24 H       -0.4600    -2.8390     0.5540 H     1 <1>   0.0800 
 25 H        0.4890    -3.6340    -0.6740 H     1 <1>   0.0800 
 26 H       -1.0730    -2.7500    -2.4110 H     1 <1>   0.0800 
 27 H       -2.0390    -2.0460    -1.1450 H     1 <1>   0.0800 
 28 H        2.6990    -3.9600    -0.7950 H     1 <1>   0.0800 
 29 H        4.2240    -3.8620     0.0280 H     1 <1>   0.0800 
 30 H        3.8980    -2.8010    -1.3160 H     1 <1>   0.0800 
 31 H        3.0050    -3.3570     2.3400 H     1 <1>   0.0800 
 32 H        1.5640    -3.6730     1.4440 H     1 <1>   0.0800 
 33 H        1.7350    -2.1640     2.3210 H     1 <1>   0.0800 
 34 H        4.7710    -1.8870     1.4990 H     1 <1>   0.0800 
 35 H        3.6400    -0.5700     1.6420 H     1 <1>   0.0800 
 36 H        4.4940    -0.8420     0.1350 H     1 <1>   0.0800 
 37 H       -5.5400    -4.5910     0.5070 H     1 <1>   0.1500 
 38 H       -3.9010    -8.2860    -0.8370 H     1 <1>   0.1500 
 39 H       -7.4990    -5.7840     1.3680 H     1 <1>   0.1500 
 40 H       -5.8360    -9.4670     0.0120 H     1 <1>   0.1500 
 41 H       -9.0800    -9.8960     1.6450 H     1 <1>   0.0800 
 42 H       -7.3430   -10.1710     1.7100 H     1 <1>   0.0800 
 43 H       -8.1560    -9.9640     0.1480 H     1 <1>   0.0800 
@<TRIPOS>BOND
  1   1   2  2   
  2   2   3  am  
  3   2   4  1   
  4   3   5  1   
  5   3  23  1   
  6   4   6  1   
  7   4  24  1   
  8   4  25  1   
  9   5   7  1   
 10   5   8  1   
 11   5   9  1   
 12   6  10  1   
 13   6  26  1   
 14   6  27  1   
 15   7  28  1   
 16   7  29  1   
 17   7  30  1   
 18   8  31  1   
 19   8  32  1   
 20   8  33  1   
 21   9  34  1   
 22   9  35  1   
 23   9  36  1   
 24  10  11  1   
 25  10  12  2   
 26  11  13  1   
 27  12  14  1   
 28  13  14  2   
 29  14  15  1   
 30  15  16  ar  
 31  15  17  ar  
 32  16  18  ar  
 33  16  37  1   
 34  17  19  ar  
 35  17  38  1   
 36  18  20  ar  
 37  18  39  1   
 38  19  20  ar  
 39  19  40  1   
 40  20  21  1   
 41  21  22  1   
 42  22  41  1   
 43  22  42  1   
 44  22  43  1   
@<TRIPOS>SUBSTRUCTURE
  1 ****  12 GROUP 4 **** **** 0

# MOE 2024.06 (io_trps.svl 2023.06)
