@<TRIPOS>MOLECULE
7-(2-Fluoro-benzyl)-1,3-dimethyl-8-(4-methyl-piperazin-1-ylmethyl)-3,7-dihydro-p
56 59 1 0 0 
SMALL
USER_CHARGES


@<TRIPOS>ATOM
  1 F        0.2280    -1.8880     1.9950 F     1 <1>  -0.1900 
  2 C       -0.0960    -1.5610     0.7730 C.ar  1 <1>   0.1900 
  3 C       -1.2910    -2.0250     0.2430 C.ar  1 <1>  -0.1440 
  4 C        0.7910    -0.7860     0.0500 C.ar  1 <1>  -0.1500 
  5 C       -1.5940    -1.6830    -1.0690 C.ar  1 <1>  -0.1500 
  6 C       -2.2440    -2.8760     1.0670 C.3   1 <1>   0.4980 
  7 C        0.4740    -0.4620    -1.2580 C.ar  1 <1>  -0.1500 
  8 C       -0.7150    -0.9100    -1.8120 C.ar  1 <1>  -0.1500 
  9 N       -2.3660    -4.2510     0.4820 N.pl3 1 <1>  -0.7640 
 10 C       -3.5760    -4.9590     0.4580 C.2   1 <1>   0.2770 
 11 C       -1.4500    -5.0270    -0.0990 C.cat 1 <1>   0.6560 
 12 C       -4.9060    -4.7190     0.9450 C.2   1 <1>   0.7030 
 13 C       -3.3270    -6.1310    -0.1730 C.2   1 <1>   0.4260 
 14 N       -2.0130    -6.1600    -0.5060 N.pl3 1 <1>  -0.7000 
 15 C        0.0550    -4.7520    -0.3080 C.3   1 <1>   0.2540 
 16 O       -5.1780    -3.6940     1.5440 O.2   1 <1>  -0.5700 
 17 N       -5.8730    -5.6910     0.7300 N.am  1 <1>  -0.4200 
 18 N       -4.2840    -7.1030    -0.3990 N.am  1 <1>  -0.4360 
 19 N        0.9090    -5.9830    -0.3440 N.3   1 <1>  -0.8100 
 20 C       -5.5630    -6.8870     0.0930 C.2   1 <1>   0.6900 
 21 C       -7.2690    -5.4830     1.2320 C.3   1 <1>   0.0600 
 22 C       -3.9640    -8.3560    -1.1450 C.3   1 <1>   0.0600 
 23 C        2.2280    -5.6690    -0.9640 C.3   1 <1>   0.1100 
 24 C        1.1230    -6.5360     1.0250 C.3   1 <1>   0.1100 
 25 O       -6.4090    -7.7480    -0.0270 O.2   1 <1>  -0.5700 
 26 C        3.2280    -6.8550    -0.9430 C.3   1 <1>   0.3430 
 27 C        2.0910    -7.7490     1.0590 C.3   1 <1>   0.3430 
 28 N        2.6300    -8.0730    -0.3030 N.4   1 <1>  -0.9590 
 29 C        3.5760    -9.2300    -0.2850 C.3   1 <1>   0.2630 
 30 H        1.7050    -0.4420     0.5000 H     1 <1>   0.1500 
 31 H       -2.5170    -2.0070    -1.5230 H     1 <1>   0.1500 
 32 H       -3.2020    -2.3850     1.0620 H     1 <1>   0.0800 
 33 H       -1.9260    -2.9500     2.0930 H     1 <1>   0.0800 
 34 H        1.1470     0.1440    -1.8420 H     1 <1>   0.1500 
 35 H       -0.9580    -0.6450    -2.8290 H     1 <1>   0.1500 
 36 H       -1.5090    -6.9080    -0.9830 H     1 <1>   0.4500 
 37 H        0.4110    -4.1070     0.4740 H     1 <1>   0.0800 
 38 H        0.1520    -4.2220    -1.2400 H     1 <1>   0.0800 
 39 H       -7.4840    -4.4350     1.3550 H     1 <1>   0.0800 
 40 H       -7.3900    -5.9790     2.1780 H     1 <1>   0.0800 
 41 H       -7.9800    -5.8910     0.5330 H     1 <1>   0.0800 
 42 H       -3.2370    -8.1640    -1.9140 H     1 <1>   0.0800 
 43 H       -4.8500    -8.7480    -1.6180 H     1 <1>   0.0800 
 44 H       -3.5860    -9.0980    -0.4640 H     1 <1>   0.0800 
 45 H        2.6840    -4.8350    -0.4540 H     1 <1>   0.0800 
 46 H        2.0800    -5.3700    -1.9880 H     1 <1>   0.0800 
 47 H        0.1790    -6.8430     1.4450 H     1 <1>   0.0800 
 48 H        1.5230    -5.7710     1.6700 H     1 <1>   0.0800 
 49 H        4.1130    -6.5570    -0.4050 H     1 <1>   0.0800 
 50 H        3.5260    -7.0800    -1.9540 H     1 <1>   0.0800 
 51 H        1.5700    -8.6040     1.4590 H     1 <1>   0.0800 
 52 H        2.9050    -7.5260     1.7300 H     1 <1>   0.0800 
 53 H        1.8070    -8.3030    -0.8800 H     1 <1>   0.4500 
 54 H        4.4440    -8.9960     0.3110 H     1 <1>   0.0800 
 55 H        3.9000    -9.4650    -1.2870 H     1 <1>   0.0800 
 56 H        3.0970   -10.1010     0.1320 H     1 <1>   0.0800 
@<TRIPOS>BOND
  1   1   2  1   
  2   2   3  ar  
  3   2   4  ar  
  4   3   5  ar  
  5   3   6  1   
  6   4   7  ar  
  7   4  30  1   
  8   5   8  ar  
  9   5  31  1   
 10   6   9  1   
 11   6  32  1   
 12   6  33  1   
 13   7   8  ar  
 14   7  34  1   
 15   8  35  1   
 16   9  10  1   
 17   9  11  ar  
 18  10  12  1   
 19  10  13  2   
 20  11  14  ar  
 21  11  15  1   
 22  12  16  2   
 23  12  17  am  
 24  13  14  1   
 25  13  18  1   
 26  14  36  1   
 27  15  19  1   
 28  15  37  1   
 29  15  38  1   
 30  17  20  am  
 31  17  21  1   
 32  18  20  am  
 33  18  22  1   
 34  19  23  1   
 35  19  24  1   
 36  20  25  2   
 37  21  39  1   
 38  21  40  1   
 39  21  41  1   
 40  22  42  1   
 41  22  43  1   
 42  22  44  1   
 43  23  26  1   
 44  23  45  1   
 45  23  46  1   
 46  24  27  1   
 47  24  47  1   
 48  24  48  1   
 49  26  28  1   
 50  26  49  1   
 51  26  50  1   
 52  27  28  1   
 53  27  51  1   
 54  27  52  1   
 55  28  29  1   
 56  28  53  1   
 57  29  54  1   
 58  29  55  1   
 59  29  56  1   
@<TRIPOS>SUBSTRUCTURE
  1 ****  11 GROUP 4 **** **** 0

# MOE 2024.06 (io_trps.svl 2023.06)
