@<TRIPOS>MOLECULE
Morpholine-4-carboxylic acid [2-(toluene-4-sulfonylamino)-ethyl]-amide
43 44 1 0 0 
SMALL
USER_CHARGES


@<TRIPOS>ATOM
  1 S        0.3170     0.7120    -1.0060 S.o2  1 <1>   1.4470 
  2 O        0.1650     1.7800    -1.9680 O.2   1 <1>  -0.6500 
  3 O        1.0470    -0.4820    -1.3660 O.2   1 <1>  -0.6500 
  4 N        1.2210     1.3360     0.2630 N.am  1 <1>  -0.9140 
  5 C       -1.2720     0.3020    -0.2370 C.ar  1 <1>  -0.0090 
  6 C        2.2940     2.2540    -0.1300 C.3   1 <1>   0.1960 
  7 C       -2.0500     1.2860     0.3600 C.ar  1 <1>  -0.1500 
  8 C       -1.7520    -1.0020    -0.2200 C.ar  1 <1>  -0.1500 
  9 C        3.3150     1.6100    -1.0870 C.3   1 <1>   0.1400 
 10 C       -3.2620     0.9820     0.9550 C.ar  1 <1>  -0.1500 
 11 C       -2.9640    -1.3140     0.3730 C.ar  1 <1>  -0.1500 
 12 N        4.5470     2.4310    -1.1580 N.am  1 <1>  -0.7300 
 13 C       -3.7270    -0.3210     0.9640 C.ar  1 <1>  -0.1430 
 14 C        5.5370     2.3080    -0.2500 C.2   1 <1>   0.6900 
 15 C       -5.0550    -0.6590     1.6160 C.3   1 <1>  -0.0970 
 16 O        5.8140     3.2910     0.4050 O.2   1 <1>  -0.5700 
 17 N        6.1710     1.1140    -0.0450 N.am  1 <1>  -0.6600 
 18 C        7.0650     0.9010     1.1260 C.3   1 <1>   0.1400 
 19 C        6.3060     0.0550    -1.0860 C.3   1 <1>   0.1400 
 20 C        6.9320    -0.5400     1.6460 C.3   1 <1>   0.1200 
 21 C        6.2000    -1.3380    -0.4430 C.3   1 <1>   0.1200 
 22 O        7.1140    -1.4670     0.6110 O.3   1 <1>  -0.5600 
 23 H        1.6440     0.5160     0.6920 H     1 <1>   0.4200 
 24 H        2.8070     2.5700     0.7640 H     1 <1>   0.0800 
 25 H        1.8670     3.1270    -0.5950 H     1 <1>   0.0800 
 26 H       -1.7010     2.3050     0.3600 H     1 <1>   0.1500 
 27 H       -1.1730    -1.7880    -0.6760 H     1 <1>   0.1500 
 28 H        2.8970     1.5240    -2.0760 H     1 <1>   0.0800 
 29 H        3.5660     0.6270    -0.7300 H     1 <1>   0.0800 
 30 H       -3.8420     1.7660     1.4110 H     1 <1>   0.1500 
 31 H       -3.3100    -2.3330     0.3730 H     1 <1>   0.1500 
 32 H        4.3690     3.4110    -1.3840 H     1 <1>   0.3700 
 33 H       -4.9010    -0.8970     2.6530 H     1 <1>   0.0800 
 34 H       -5.5100    -1.5020     1.1290 H     1 <1>   0.0800 
 35 H       -5.7300     0.1750     1.5480 H     1 <1>   0.0800 
 36 H        6.8160     1.5910     1.9140 H     1 <1>   0.0800 
 37 H        8.0840     1.0840     0.8320 H     1 <1>   0.0800 
 38 H        7.2680     0.1500    -1.5590 H     1 <1>   0.0800 
 39 H        5.5540     0.1630    -1.8460 H     1 <1>   0.0800 
 40 H        5.9600    -0.6950     2.0800 H     1 <1>   0.0800 
 41 H        7.6800    -0.7340     2.3950 H     1 <1>   0.0800 
 42 H        6.4260    -2.0990    -1.1680 H     1 <1>   0.0800 
 43 H        5.2080    -1.5060    -0.0630 H     1 <1>   0.0800 
@<TRIPOS>BOND
  1   1   2  2   
  2   1   3  2   
  3   1   4  am  
  4   1   5  1   
  5   4   6  1   
  6   4  23  1   
  7   5   7  ar  
  8   5   8  ar  
  9   6   9  1   
 10   6  24  1   
 11   6  25  1   
 12   7  10  ar  
 13   7  26  1   
 14   8  11  ar  
 15   8  27  1   
 16   9  12  1   
 17   9  28  1   
 18   9  29  1   
 19  10  13  ar  
 20  10  30  1   
 21  11  13  ar  
 22  11  31  1   
 23  12  14  am  
 24  12  32  1   
 25  13  15  1   
 26  14  16  2   
 27  14  17  am  
 28  15  33  1   
 29  15  34  1   
 30  15  35  1   
 31  17  18  1   
 32  17  19  1   
 33  18  20  1   
 34  18  36  1   
 35  18  37  1   
 36  19  21  1   
 37  19  38  1   
 38  19  39  1   
 39  20  22  1   
 40  20  40  1   
 41  20  41  1   
 42  21  22  1   
 43  21  42  1   
 44  21  43  1   
@<TRIPOS>SUBSTRUCTURE
  1 ****   4 GROUP 4 **** **** 0

# MOE 2024.06 (io_trps.svl 2023.06)
