@<TRIPOS>MOLECULE
3-[3-(4-Methoxy-phenyl)-[1,2,4]oxadiazol-5-yl]-1-morpholin-4-yl-propan-1-one
42 44 1 0 0 
SMALL
USER_CHARGES


@<TRIPOS>ATOM
  1 O        0.1630    -0.2950     0.7120 O.2   1 <1>  -0.5700 
  2 C        0.7280    -1.3540     0.5740 C.2   1 <1>   0.5690 
  3 N        2.0770    -1.4230     0.3420 N.am  1 <1>  -0.6600 
  4 C       -0.0980    -2.6280     0.6720 C.3   1 <1>  -0.0990 
  5 C        2.9200    -0.1880     0.2870 C.3   1 <1>   0.1400 
  6 C        2.8680    -2.6720     0.1160 C.3   1 <1>   0.1400 
  7 C       -1.5690    -2.3770     1.0440 C.3   1 <1>   0.0200 
  8 C        3.8160    -0.1920    -0.9620 C.3   1 <1>   0.1200 
  9 C        3.7660    -2.5310    -1.1260 C.3   1 <1>   0.1200 
 10 C       -2.3340    -3.6800     1.1500 C.2   1 <1>   0.2980 
 11 O        4.5540    -1.3790    -1.0370 O.3   1 <1>  -0.5600 
 12 O       -2.0730    -4.4820     2.1480 O.3   1 <1>  -0.0190 
 13 N       -3.2220    -4.0870     0.3420 N.2   1 <1>  -0.5650 
 14 N       -2.8640    -5.4910     1.9580 N.2   1 <1>  -0.4100 
 15 C       -3.5500    -5.2600     0.8930 C.2   1 <1>   0.4620 
 16 C       -4.5590    -6.1410     0.3270 C.ar  1 <1>   0.0540 
 17 C       -5.2660    -5.8020    -0.8300 C.ar  1 <1>  -0.1500 
 18 C       -4.8640    -7.3690     0.9190 C.ar  1 <1>  -0.1500 
 19 C       -6.2230    -6.6430    -1.3650 C.ar  1 <1>  -0.1500 
 20 C       -5.8210    -8.2160     0.3910 C.ar  1 <1>  -0.1500 
 21 C       -6.5100    -7.8560    -0.7620 C.ar  1 <1>   0.0820 
 22 O       -7.4610    -8.6240    -1.3480 O.3   1 <1>  -0.3630 
 23 C       -7.8270    -9.8760    -0.8130 C.3   1 <1>   0.0400 
 24 H        0.3460    -3.2630     1.4160 H     1 <1>   0.0800 
 25 H       -0.0630    -3.1310    -0.2770 H     1 <1>   0.0800 
 26 H        3.5390    -0.1440     1.1660 H     1 <1>   0.0800 
 27 H        2.3040     0.6940     0.2740 H     1 <1>   0.0800 
 28 H        2.2260    -3.5230    -0.0160 H     1 <1>   0.0800 
 29 H        3.4890    -2.8550     0.9760 H     1 <1>   0.0800 
 30 H       -2.0310    -1.7600     0.2920 H     1 <1>   0.0800 
 31 H       -1.6300    -1.8570     1.9840 H     1 <1>   0.0800 
 32 H        4.5120     0.6260    -0.9210 H     1 <1>   0.0800 
 33 H        3.2210    -0.0960    -1.8540 H     1 <1>   0.0800 
 34 H        3.1710    -2.4740    -2.0210 H     1 <1>   0.0800 
 35 H        4.4280    -3.3750    -1.2040 H     1 <1>   0.0800 
 36 H       -5.0620    -4.8650    -1.3180 H     1 <1>   0.1500 
 37 H       -4.3410    -7.6640     1.8120 H     1 <1>   0.1500 
 38 H       -6.7570    -6.3650    -2.2560 H     1 <1>   0.1500 
 39 H       -6.0150    -9.1480     0.8870 H     1 <1>   0.1500 
 40 H       -8.5920   -10.2960    -1.4410 H     1 <1>   0.0800 
 41 H       -8.2090    -9.7320     0.1820 H     1 <1>   0.0800 
 42 H       -6.9640   -10.5180    -0.8070 H     1 <1>   0.0800 
@<TRIPOS>BOND
  1   1   2  2   
  2   2   3  am  
  3   2   4  1   
  4   3   5  1   
  5   3   6  1   
  6   4   7  1   
  7   4  24  1   
  8   4  25  1   
  9   5   8  1   
 10   5  26  1   
 11   5  27  1   
 12   6   9  1   
 13   6  28  1   
 14   6  29  1   
 15   7  10  1   
 16   7  30  1   
 17   7  31  1   
 18   8  11  1   
 19   8  32  1   
 20   8  33  1   
 21   9  11  1   
 22   9  34  1   
 23   9  35  1   
 24  10  12  1   
 25  10  13  2   
 26  12  14  1   
 27  13  15  1   
 28  14  15  2   
 29  15  16  1   
 30  16  17  ar  
 31  16  18  ar  
 32  17  19  ar  
 33  17  36  1   
 34  18  20  ar  
 35  18  37  1   
 36  19  21  ar  
 37  19  38  1   
 38  20  21  ar  
 39  20  39  1   
 40  21  22  1   
 41  22  23  1   
 42  23  40  1   
 43  23  41  1   
 44  23  42  1   
@<TRIPOS>SUBSTRUCTURE
  1 ****  10 GROUP 4 **** **** 0

# MOE 2024.06 (io_trps.svl 2023.06)
