@<TRIPOS>MOLECULE
N-{1-[3-(4-tert-Butyl-phenyl)-[1,2,4]oxadiazol-5-yl]-ethyl}-4-methoxy-benzamide
53 55 1 0 0 
SMALL
USER_CHARGES


@<TRIPOS>ATOM
  1 O       -1.8900    -0.3130     0.2350 O.2   1 <1>  -0.5700 
  2 C       -3.1050    -0.2760     0.2130 C.2   1 <1>   0.5440 
  3 N       -3.7830    -1.3000     0.8020 N.am  1 <1>  -0.7300 
  4 C       -3.8120     0.8170    -0.4330 C.ar  1 <1>   0.0860 
  5 C       -3.1540    -2.5180     1.3520 C.3   1 <1>   0.4000 
  6 C       -5.1290     1.1490    -0.1020 C.ar  1 <1>  -0.1500 
  7 C       -3.1930     1.5860    -1.4200 C.ar  1 <1>  -0.1500 
  8 C       -4.0480    -3.7350     1.0990 C.2   1 <1>   0.2980 
  9 C       -2.9280    -2.2960     2.8480 C.3   1 <1>  -0.2400 
 10 C       -5.7990     2.1840    -0.7300 C.ar  1 <1>  -0.1500 
 11 C       -3.8540     2.6220    -2.0520 C.ar  1 <1>  -0.1500 
 12 O       -3.5380    -4.9220     1.2910 O.3   1 <1>  -0.0190 
 13 N       -5.2630    -3.7210     0.7150 N.2   1 <1>  -0.5650 
 14 C       -5.1620     2.9300    -1.7170 C.ar  1 <1>   0.0830 
 15 N       -4.5060    -5.7340     1.0060 N.2   1 <1>  -0.4100 
 16 C       -5.5280    -5.0310     0.6640 C.2   1 <1>   0.4620 
 17 O       -5.7420     3.9550    -2.3800 O.3   1 <1>  -0.3630 
 18 C       -6.8230    -5.5550     0.2640 C.ar  1 <1>   0.0540 
 19 C       -7.0640     4.3640    -2.1100 C.3   1 <1>   0.0400 
 20 C       -7.0730    -6.9260     0.2320 C.ar  1 <1>  -0.1500 
 21 C       -7.8760    -4.7210    -0.1060 C.ar  1 <1>  -0.1500 
 22 C       -8.3020    -7.4350    -0.1470 C.ar  1 <1>  -0.1500 
 23 C       -9.1050    -5.2270    -0.4850 C.ar  1 <1>  -0.1500 
 24 C       -9.3480    -6.5960    -0.5150 C.ar  1 <1>  -0.1430 
 25 C      -10.7370    -7.1140    -0.9470 C.3   1 <1>   0.1430 
 26 C      -11.8090    -6.5630     0.0050 C.3   1 <1>  -0.2400 
 27 C      -11.0370    -6.6480    -2.3790 C.3   1 <1>  -0.2400 
 28 C      -10.8440    -8.6490    -0.9260 C.3   1 <1>  -0.2400 
 29 H       -4.7800    -1.4310     0.6110 H     1 <1>   0.3700 
 30 H       -2.2070    -2.6830     0.8660 H     1 <1>   0.0800 
 31 H       -5.6380     0.5940     0.6650 H     1 <1>   0.1500 
 32 H       -2.1750     1.3630    -1.6930 H     1 <1>   0.1500 
 33 H       -3.8650    -2.1340     3.3480 H     1 <1>   0.0800 
 34 H       -2.2890    -1.4430     2.9970 H     1 <1>   0.0800 
 35 H       -2.4510    -3.1570     3.2790 H     1 <1>   0.0800 
 36 H       -6.8100     2.3990    -0.4410 H     1 <1>   0.1500 
 37 H       -3.3600     3.2020    -2.8120 H     1 <1>   0.1500 
 38 H       -7.2950     5.1920    -2.7550 H     1 <1>   0.0800 
 39 H       -7.1300     4.6720    -1.0820 H     1 <1>   0.0800 
 40 H       -7.7310     3.5450    -2.3130 H     1 <1>   0.0800 
 41 H       -6.2900    -7.6100     0.5090 H     1 <1>   0.1500 
 42 H       -7.7330    -3.6550    -0.0980 H     1 <1>   0.1500 
 43 H       -8.4150    -8.5030    -0.1460 H     1 <1>   0.1500 
 44 H       -9.8800    -4.5350    -0.7600 H     1 <1>   0.1500 
 45 H      -11.8480    -5.4900    -0.0330 H     1 <1>   0.0800 
 46 H      -11.5890    -6.8560     1.0160 H     1 <1>   0.0800 
 47 H      -12.7810    -6.9410    -0.2570 H     1 <1>   0.0800 
 48 H      -11.9860    -7.0280    -2.7120 H     1 <1>   0.0800 
 49 H      -11.0680    -5.5760    -2.4400 H     1 <1>   0.0800 
 50 H      -10.2730    -7.0010    -3.0480 H     1 <1>   0.0800 
 51 H      -11.8250    -8.9640    -1.2330 H     1 <1>   0.0800 
 52 H      -10.1290    -9.0850    -1.6000 H     1 <1>   0.0800 
 53 H      -10.6680    -9.0260     0.0650 H     1 <1>   0.0800 
@<TRIPOS>BOND
  1   1   2  2   
  2   2   3  am  
  3   2   4  1   
  4   3   5  1   
  5   3  29  1   
  6   4   6  ar  
  7   4   7  ar  
  8   5   8  1   
  9   5   9  1   
 10   5  30  1   
 11   6  10  ar  
 12   6  31  1   
 13   7  11  ar  
 14   7  32  1   
 15   8  12  1   
 16   8  13  2   
 17   9  33  1   
 18   9  34  1   
 19   9  35  1   
 20  10  14  ar  
 21  10  36  1   
 22  11  14  ar  
 23  11  37  1   
 24  12  15  1   
 25  13  16  1   
 26  14  17  1   
 27  15  16  2   
 28  16  18  1   
 29  17  19  1   
 30  18  20  ar  
 31  18  21  ar  
 32  19  38  1   
 33  19  39  1   
 34  19  40  1   
 35  20  22  ar  
 36  20  41  1   
 37  21  23  ar  
 38  21  42  1   
 39  22  24  ar  
 40  22  43  1   
 41  23  24  ar  
 42  23  44  1   
 43  24  25  1   
 44  25  26  1   
 45  25  27  1   
 46  25  28  1   
 47  26  45  1   
 48  26  46  1   
 49  26  47  1   
 50  27  48  1   
 51  27  49  1   
 52  27  50  1   
 53  28  51  1   
 54  28  52  1   
 55  28  53  1   
@<TRIPOS>SUBSTRUCTURE
  1 ****  13 GROUP 4 **** **** 0

# MOE 2024.06 (io_trps.svl 2023.06)
