@<TRIPOS>MOLECULE
2-(3,5-Dimethyl-pyrazol-1-yl)-3-piperazin-1-yl-quinoxaline
44 47 1 0 0 
SMALL
USER_CHARGES


@<TRIPOS>ATOM
  1 N        0.7290     0.1340    -0.4940 N.ar  1 <1>  -0.6200 
  2 C        1.6980     0.9750    -0.2620 C.ar  1 <1>   0.4100 
  3 C       -0.5100     0.6100    -0.2050 C.ar  1 <1>   0.3100 
  4 N        2.9610     0.4890    -0.5640 N.pl3 1 <1>  -0.8380 
  5 C        1.4900     2.2930     0.2740 C.ar  1 <1>   0.2870 
  6 C       -0.7240     1.9120     0.3090 C.ar  1 <1>   0.3100 
  7 C       -1.6240    -0.2140    -0.4240 C.ar  1 <1>  -0.1500 
  8 C        3.1660    -0.2080    -1.8710 C.3   1 <1>   0.2090 
  9 C        3.7400    -0.0760     0.5800 C.3   1 <1>   0.2090 
 10 N        0.3010     2.7680     0.5470 N.ar  1 <1>  -0.6200 
 11 N        2.6410     3.1050     0.4910 N.pl3 1 <1>   0.5930 
 12 C       -2.0340     2.3270     0.5820 C.ar  1 <1>  -0.1500 
 13 C       -2.8970     0.2160    -0.1500 C.ar  1 <1>  -0.1500 
 14 C        2.9490    -1.7300    -1.7230 C.3   1 <1>   0.3430 
 15 C        3.5160    -1.5980     0.6960 C.3   1 <1>   0.3430 
 16 N        3.5280     2.9210     1.5200 N.2   1 <1>  -0.7070 
 17 C        3.0320     4.1830    -0.2520 C.2   1 <1>  -0.3320 
 18 C       -3.1050     1.4990     0.3580 C.ar  1 <1>  -0.1500 
 19 N        3.7670    -2.3180    -0.6030 N.4   1 <1>  -0.9060 
 20 C        4.4070     3.8600     1.3970 C.2   1 <1>   0.1080 
 21 C        4.1540     4.6800     0.3040 C.2   1 <1>  -0.1500 
 22 C        2.2820     4.6900    -1.4740 C.3   1 <1>  -0.0600 
 23 C        5.5640     4.0260     2.3540 C.3   1 <1>  -0.0590 
 24 H       -1.4540    -1.2000    -0.8160 H     1 <1>   0.1500 
 25 H        4.1600    -0.0080    -2.2300 H     1 <1>   0.0800 
 26 H        2.4720     0.1800    -2.5980 H     1 <1>   0.0800 
 27 H        3.4240     0.3820     1.5020 H     1 <1>   0.0800 
 28 H        4.7850     0.1470     0.4500 H     1 <1>   0.0800 
 29 H       -2.1750     3.3180     0.9740 H     1 <1>   0.1500 
 30 H       -3.7460    -0.4250    -0.3220 H     1 <1>   0.1500 
 31 H        3.1910    -2.2150    -2.6540 H     1 <1>   0.0800 
 32 H        1.9020    -1.8950    -1.5270 H     1 <1>   0.0800 
 33 H        2.4940    -1.7570     1.0000 H     1 <1>   0.0800 
 34 H        4.1560    -1.9920     1.4690 H     1 <1>   0.0800 
 35 H       -4.1080     1.8280     0.5710 H     1 <1>   0.1500 
 36 H        4.7630    -2.2440    -0.8390 H     1 <1>   0.4500 
 37 H        3.5420    -3.3150    -0.4960 H     1 <1>   0.4500 
 38 H        4.7430     5.5260    -0.0020 H     1 <1>   0.1500 
 39 H        2.2310     3.9240    -2.2270 H     1 <1>   0.0800 
 40 H        2.7820     5.5480    -1.8880 H     1 <1>   0.0800 
 41 H        1.2810     4.9780    -1.2010 H     1 <1>   0.0800 
 42 H        6.1930     3.1570     2.3160 H     1 <1>   0.0800 
 43 H        5.1860     4.1410     3.3540 H     1 <1>   0.0800 
 44 H        6.1430     4.8930     2.0970 H     1 <1>   0.0800 
@<TRIPOS>BOND
  1   1   2  ar  
  2   1   3  ar  
  3   2   4  1   
  4   2   5  ar  
  5   3   6  ar  
  6   3   7  ar  
  7   4   8  1   
  8   4   9  1   
  9   5  10  ar  
 10   5  11  1   
 11   6  10  ar  
 12   6  12  ar  
 13   7  13  ar  
 14   7  24  1   
 15   8  14  1   
 16   8  25  1   
 17   8  26  1   
 18   9  15  1   
 19   9  27  1   
 20   9  28  1   
 21  11  16  1   
 22  11  17  1   
 23  12  18  ar  
 24  12  29  1   
 25  13  18  ar  
 26  13  30  1   
 27  14  19  1   
 28  14  31  1   
 29  14  32  1   
 30  15  19  1   
 31  15  33  1   
 32  15  34  1   
 33  16  20  2   
 34  17  21  2   
 35  17  22  1   
 36  18  35  1   
 37  19  36  1   
 38  19  37  1   
 39  20  21  1   
 40  20  23  1   
 41  21  38  1   
 42  22  39  1   
 43  22  40  1   
 44  22  41  1   
 45  23  42  1   
 46  23  43  1   
 47  23  44  1   
@<TRIPOS>SUBSTRUCTURE
  1 ****   2 GROUP 4 **** **** 0

# MOE 2024.06 (io_trps.svl 2023.06)
