@<TRIPOS>MOLECULE
1-(2-Methoxy-ethyl)-5-(4-methoxy-phenyl)-1H-imidazol-2-ylamine
36 37 1 0 0 
SMALL
USER_CHARGES


@<TRIPOS>ATOM
  1 O        0.6930     1.1880     0.5400 O.3   1 <1>  -0.3710 
  2 C        1.7830     0.4450     0.2340 C.ar  1 <1>   0.0720 
  3 C       -0.5920     0.8360     0.0780 C.3   1 <1>   0.0290 
  4 C        1.7390    -0.7260    -0.5160 C.ar  1 <1>  -0.1600 
  5 C        3.0020     0.9000     0.7070 C.ar  1 <1>  -0.1600 
  6 C        2.9050    -1.4220    -0.7800 C.ar  1 <1>  -0.1600 
  7 C        4.1650     0.2020     0.4400 C.ar  1 <1>  -0.1600 
  8 C        4.1360    -0.9730    -0.3060 C.ar  1 <1>   0.0300 
  9 C        5.3480    -1.7070    -0.5780 C.2   1 <1>   0.3000 
 10 N        5.6280    -2.9710    -0.0640 N.pl3 1 <1>  -0.7680 
 11 C        6.4110    -1.3590    -1.3370 C.2   1 <1>   0.1900 
 12 C        6.8130    -3.3420    -0.5360 C.cat 1 <1>   1.0680 
 13 C        4.7990    -3.6730     0.9650 C.3   1 <1>   0.3460 
 14 N        7.3190    -2.3920    -1.2990 N.pl3 1 <1>  -0.7050 
 15 N        7.4050    -4.4870    -0.2920 N.pl3 1 <1>  -0.8400 
 16 C        4.1310    -4.9510     0.4290 C.3   1 <1>   0.1100 
 17 O        5.1010    -5.8850     0.0460 O.3   1 <1>  -0.5660 
 18 C        4.5600    -7.0910    -0.3990 C.3   1 <1>   0.0290 
 19 H       -1.2880     1.5750     0.4320 H     1 <1>   0.0690 
 20 H       -0.8530    -0.1300     0.4720 H     1 <1>   0.0690 
 21 H       -0.5860     0.8270    -0.9980 H     1 <1>   0.0690 
 22 H        0.8090    -1.1020    -0.8990 H     1 <1>   0.1400 
 23 H        3.0270     1.8080     1.2850 H     1 <1>   0.1400 
 24 H        2.8550    -2.3230    -1.3660 H     1 <1>   0.1400 
 25 H        5.0970     0.5790     0.8230 H     1 <1>   0.1400 
 26 H        6.5650    -0.4490    -1.8960 H     1 <1>   0.1400 
 27 H        4.0310    -3.0100     1.3250 H     1 <1>   0.0690 
 28 H        5.4160    -3.9280     1.8090 H     1 <1>   0.0690 
 29 H        8.2200    -2.4330    -1.7720 H     1 <1>   0.4430 
 30 H        8.2820    -4.7820    -0.7080 H     1 <1>   0.4430 
 31 H        6.7900    -5.2560     0.0160 H     1 <1>   0.4430 
 32 H        3.5100    -4.7200    -0.4190 H     1 <1>   0.0690 
 33 H        3.5240    -5.3900     1.2030 H     1 <1>   0.0690 
 34 H        5.3680    -7.7460    -0.6760 H     1 <1>   0.0690 
 35 H        3.9340    -6.9080    -1.2560 H     1 <1>   0.0690 
 36 H        3.9880    -7.5410     0.3940 H     1 <1>   0.0690 
@<TRIPOS>BOND
  1   1   2  1   
  2   1   3  1   
  3   2   4  ar  
  4   2   5  ar  
  5   3  19  1   
  6   3  20  1   
  7   3  21  1   
  8   4   6  ar  
  9   4  22  1   
 10   5   7  ar  
 11   5  23  1   
 12   6   8  ar  
 13   6  24  1   
 14   7   8  ar  
 15   7  25  1   
 16   8   9  1   
 17   9  10  1   
 18   9  11  2   
 19  10  12  ar  
 20  10  13  1   
 21  11  14  1   
 22  11  26  1   
 23  12  14  ar  
 24  12  15  ar  
 25  13  16  1   
 26  13  27  1   
 27  13  28  1   
 28  14  29  1   
 29  15  30  1   
 30  15  31  1   
 31  16  17  1   
 32  16  32  1   
 33  16  33  1   
 34  17  18  1   
 35  18  34  1   
 36  18  35  1   
 37  18  36  1   
@<TRIPOS>SUBSTRUCTURE
  1 ****   8 GROUP 4 **** **** 0

# MOE 2024.06 (io_trps.svl 2023.06)
