@<TRIPOS>MOLECULE
4-(4-Methoxycarbonylmethoxy-3-methyl-benzenesulfonyl)-piperazine-1-carboxylic ac
51 52 1 0 0 
SMALL
USER_CHARGES


@<TRIPOS>ATOM
  1 S        0.0040    -0.7400     2.3320 S.o2  1 <1>   1.4470 
  2 O       -0.4540     0.0530     3.4520 O.2   1 <1>  -0.6500 
  3 O       -0.0250    -2.1840     2.4270 O.2   1 <1>  -0.6500 
  4 N       -0.9770    -0.3270     1.0130 N.am  1 <1>  -0.8490 
  5 C        1.6490    -0.1700     1.8210 C.ar  1 <1>  -0.0090 
  6 C       -0.6900    -1.1520    -0.1770 C.3   1 <1>   0.1960 
  7 C       -2.4050    -0.4290     1.3670 C.3   1 <1>   0.1960 
  8 C        2.6890    -1.0650     1.6000 C.ar  1 <1>  -0.1500 
  9 C        1.9070     1.1810     1.6240 C.ar  1 <1>  -0.1500 
 10 C       -1.5440    -0.7290    -1.3850 C.3   1 <1>   0.1400 
 11 C       -3.3210     0.0040     0.2090 C.3   1 <1>   0.1400 
 12 C        3.9440    -0.6400     1.1970 C.ar  1 <1>  -0.1440 
 13 C        3.1540     1.6260     1.2250 C.ar  1 <1>  -0.1500 
 14 N       -2.9930    -0.7480    -1.0370 N.am  1 <1>  -0.6600 
 15 C        4.1850     0.7170     1.0080 C.ar  1 <1>   0.0830 
 16 C        5.0490    -1.6630     0.9670 C.3   1 <1>  -0.0970 
 17 C       -3.9040    -1.4790    -1.7490 C.2   1 <1>   0.7800 
 18 O        5.4360     1.0830     0.6220 O.3   1 <1>  -0.3630 
 19 O       -3.5970    -2.1330    -2.7280 O.2   1 <1>  -0.5700 
 20 O       -5.1710    -1.4660    -1.3340 O.3   1 <1>  -0.4300 
 21 C        5.8090     2.4320     0.3750 C.3   1 <1>   0.1810 
 22 C       -6.1630    -2.1990    -2.0160 C.3   1 <1>   0.1200 
 23 C        5.2390     2.9580    -0.9350 C.2   1 <1>   0.6590 
 24 C       -7.4890    -1.9840    -1.2950 C.3   1 <1>  -0.2400 
 25 O        4.4310     3.8530    -0.9550 O.2   1 <1>  -0.5700 
 26 O        5.7000     2.4010    -2.0510 O.3   1 <1>  -0.4300 
 27 C        5.2490     2.8060    -3.3260 C.3   1 <1>   0.0400 
 28 H       -0.8830    -2.1910     0.0350 H     1 <1>   0.0800 
 29 H        0.3480    -1.0560    -0.4430 H     1 <1>   0.0800 
 30 H       -2.6130     0.2010     2.2150 H     1 <1>   0.0800 
 31 H       -2.6410    -1.4430     1.6460 H     1 <1>   0.0800 
 32 H        2.5060    -2.1170     1.7490 H     1 <1>   0.1500 
 33 H        1.1150     1.8940     1.7880 H     1 <1>   0.1500 
 34 H       -1.3440    -1.3920    -2.2090 H     1 <1>   0.0800 
 35 H       -1.2660     0.2660    -1.6860 H     1 <1>   0.0800 
 36 H       -3.1870     1.0560     0.0300 H     1 <1>   0.0800 
 37 H       -4.3460    -0.1540     0.4950 H     1 <1>   0.0800 
 38 H        3.2930     2.6830     1.0910 H     1 <1>   0.1500 
 39 H        4.7010    -2.6630     1.1490 H     1 <1>   0.0800 
 40 H        5.8740    -1.4620     1.6270 H     1 <1>   0.0800 
 41 H        5.3970    -1.6000    -0.0490 H     1 <1>   0.0800 
 42 H        6.8800     2.4600     0.3220 H     1 <1>   0.0800 
 43 H        5.4900     3.0380     1.2020 H     1 <1>   0.0800 
 44 H       -5.8830    -3.2390    -2.0100 H     1 <1>   0.0800 
 45 H       -6.2120    -1.8420    -3.0310 H     1 <1>   0.0800 
 46 H       -7.4200    -2.3330    -0.2800 H     1 <1>   0.0800 
 47 H       -8.2660    -2.5340    -1.7940 H     1 <1>   0.0800 
 48 H       -7.7500    -0.9410    -1.3010 H     1 <1>   0.0800 
 49 H        5.7580     2.2210    -4.0700 H     1 <1>   0.0800 
 50 H        5.4710     3.8510    -3.4590 H     1 <1>   0.0800 
 51 H        4.1870     2.6420    -3.3870 H     1 <1>   0.0800 
@<TRIPOS>BOND
  1   1   2  2   
  2   1   3  2   
  3   1   4  am  
  4   1   5  1   
  5   4   6  1   
  6   4   7  1   
  7   5   8  ar  
  8   5   9  ar  
  9   6  10  1   
 10   6  28  1   
 11   6  29  1   
 12   7  11  1   
 13   7  30  1   
 14   7  31  1   
 15   8  12  ar  
 16   8  32  1   
 17   9  13  ar  
 18   9  33  1   
 19  10  14  1   
 20  10  34  1   
 21  10  35  1   
 22  11  14  1   
 23  11  36  1   
 24  11  37  1   
 25  12  15  ar  
 26  12  16  1   
 27  13  15  ar  
 28  13  38  1   
 29  14  17  am  
 30  15  18  1   
 31  16  39  1   
 32  16  40  1   
 33  16  41  1   
 34  17  19  2   
 35  17  20  1   
 36  18  21  1   
 37  20  22  1   
 38  21  23  1   
 39  21  42  1   
 40  21  43  1   
 41  22  24  1   
 42  22  44  1   
 43  22  45  1   
 44  23  25  2   
 45  23  26  1   
 46  24  46  1   
 47  24  47  1   
 48  24  48  1   
 49  26  27  1   
 50  27  49  1   
 51  27  50  1   
 52  27  51  1   
@<TRIPOS>SUBSTRUCTURE
  1 ****   6 GROUP 4 **** **** 0

# MOE 2024.06 (io_trps.svl 2023.06)
