@<TRIPOS>MOLECULE
N-[1-(4-Ethyl-5-mercapto-4H-[1,2,4]triazol-3-yl)-ethyl]-4-methyl-benzamide
38 39 1 0 0 
SMALL
USER_CHARGES


@<TRIPOS>ATOM
  1 S       -0.7400    -0.2500    -1.5990 S.3   1 <1>  -0.9360 
  2 C       -1.3380     1.2550    -1.5180 C.cat 1 <1>   0.7360 
  3 N       -1.0570     2.2110    -2.3730 N.pl3 1 <1>  -0.3930 
  4 N       -2.1730     1.7320    -0.6150 N.pl3 1 <1>  -0.7640 
  5 N       -1.7200     3.3590    -2.0490 N.2   1 <1>  -0.2600 
  6 C       -2.3840     3.0450    -0.9890 C.2   1 <1>   0.4850 
  7 C       -2.7240     0.9450     0.5050 C.3   1 <1>   0.3540 
  8 C       -3.3180     4.0080    -0.2210 C.3   1 <1>   0.3880 
  9 C       -1.9450     1.2560     1.7780 C.3   1 <1>  -0.2400 
 10 N       -4.7480     3.6480    -0.4060 N.am  1 <1>  -0.7300 
 11 C       -3.1680     5.4740    -0.6390 C.3   1 <1>  -0.2400 
 12 C       -5.5650     3.1730     0.5760 C.2   1 <1>   0.5440 
 13 O       -5.0970     3.0330     1.6880 O.2   1 <1>  -0.5700 
 14 C       -6.9500     2.8360     0.2960 C.ar  1 <1>   0.0860 
 15 C       -7.9270     2.9550     1.2830 C.ar  1 <1>  -0.1500 
 16 C       -7.3610     2.3800    -0.9580 C.ar  1 <1>  -0.1500 
 17 C       -9.2520     2.6480     1.0310 C.ar  1 <1>  -0.1500 
 18 C       -8.6840     2.0720    -1.2150 C.ar  1 <1>  -0.1500 
 19 C       -9.6390     2.2050    -0.2220 C.ar  1 <1>  -0.1430 
 20 C      -11.0930     1.8700    -0.5010 C.3   1 <1>  -0.0970 
 21 H       -0.4200     2.0420    -3.1520 H     1 <1>   0.4500 
 22 H       -2.6440    -0.1070     0.2850 H     1 <1>   0.0800 
 23 H       -3.7660     1.1680     0.6360 H     1 <1>   0.0800 
 24 H       -3.0610     3.9410     0.8210 H     1 <1>   0.0800 
 25 H       -0.9050     1.0190     1.6350 H     1 <1>   0.0800 
 26 H       -2.3240     0.6550     2.5830 H     1 <1>   0.0800 
 27 H       -2.0490     2.2890     2.0490 H     1 <1>   0.0800 
 28 H       -5.1280     3.8230    -1.3360 H     1 <1>   0.3700 
 29 H       -3.4180     5.6050    -1.6770 H     1 <1>   0.0800 
 30 H       -2.1520     5.7930    -0.4890 H     1 <1>   0.0800 
 31 H       -3.8070     6.0950    -0.0360 H     1 <1>   0.0800 
 32 H       -7.6390     3.2950     2.2640 H     1 <1>   0.1500 
 33 H       -6.6390     2.2520    -1.7440 H     1 <1>   0.1500 
 34 H       -9.9810     2.7550     1.8160 H     1 <1>   0.1500 
 35 H       -8.9710     1.7240    -2.1930 H     1 <1>   0.1500 
 36 H      -11.6110     2.7490    -0.8390 H     1 <1>   0.0800 
 37 H      -11.5730     1.5050     0.3900 H     1 <1>   0.0800 
 38 H      -11.1680     1.1110    -1.2590 H     1 <1>   0.0800 
@<TRIPOS>BOND
  1   1   2  1   
  2   2   3  ar  
  3   2   4  ar  
  4   3   5  1   
  5   3  21  1   
  6   4   6  1   
  7   4   7  1   
  8   5   6  2   
  9   6   8  1   
 10   7   9  1   
 11   7  22  1   
 12   7  23  1   
 13   8  10  1   
 14   8  11  1   
 15   8  24  1   
 16   9  25  1   
 17   9  26  1   
 18   9  27  1   
 19  10  12  am  
 20  10  28  1   
 21  11  29  1   
 22  11  30  1   
 23  11  31  1   
 24  12  13  2   
 25  12  14  1   
 26  14  15  ar  
 27  14  16  ar  
 28  15  17  ar  
 29  15  32  1   
 30  16  18  ar  
 31  16  33  1   
 32  17  19  ar  
 33  17  34  1   
 34  18  19  ar  
 35  18  35  1   
 36  19  20  1   
 37  20  36  1   
 38  20  37  1   
 39  20  38  1   
@<TRIPOS>SUBSTRUCTURE
  1 ****  10 GROUP 4 **** **** 0

# MOE 2024.06 (io_trps.svl 2023.06)
