@<TRIPOS>MOLECULE
2-[(Adamantan-1-ylmethyl)-amino]-ethanol
39 41 1 0 0 
SMALL
USER_CHARGES


@<TRIPOS>ATOM
  1 O       -1.0790    -1.3890    -1.0620 O.3   1 <1>  -0.6800 
  2 C       -2.4280    -1.4570    -0.7740 C.3   1 <1>   0.1200 
  3 C       -2.9550    -0.0190    -0.6930 C.3   1 <1>   0.3430 
  4 N       -4.4140     0.0220    -0.3830 N.4   1 <1>  -0.9060 
  5 C       -4.9310     1.4170    -0.3030 C.3   1 <1>   0.3430 
  6 C       -6.4390     1.4510     0.0170 C.3   1 <1>   0.0000 
  7 C       -7.2710     0.7390    -1.0800 C.3   1 <1>  -0.1600 
  8 C       -6.7460     0.7920     1.3860 C.3   1 <1>  -0.1600 
  9 C       -6.8850     2.9320     0.0800 C.3   1 <1>  -0.1600 
 10 C       -8.7750     0.8350    -0.7640 C.3   1 <1>  -0.0800 
 11 C       -8.2500     0.8880     1.7050 C.3   1 <1>  -0.0800 
 12 C       -8.3870     3.0400     0.3970 C.3   1 <1>  -0.0800 
 13 C       -9.0510     0.1750     0.6000 C.3   1 <1>  -0.1600 
 14 C       -9.1880     2.3170    -0.7000 C.3   1 <1>  -0.1600 
 15 C       -8.6660     2.3690     1.7540 C.3   1 <1>  -0.1600 
 16 H       -0.6720    -2.2810    -1.1300 H     1 <1>   0.4000 
 17 H       -2.5420    -1.9690     0.1670 H     1 <1>   0.0800 
 18 H       -2.9100    -2.0060    -1.5650 H     1 <1>   0.0800 
 19 H       -2.7700     0.4680    -1.6370 H     1 <1>   0.0800 
 20 H       -2.4060     0.5050     0.0740 H     1 <1>   0.0800 
 21 H       -4.6030    -0.4440     0.5120 H     1 <1>   0.4500 
 22 H       -4.9470    -0.4790    -1.1040 H     1 <1>   0.4500 
 23 H       -4.7630     1.9210    -1.2410 H     1 <1>   0.0800 
 24 H       -4.4010     1.9570     0.4640 H     1 <1>   0.0800 
 25 H       -7.0860     1.1910    -2.0400 H     1 <1>   0.0800 
 26 H       -7.0090    -0.3010    -1.1500 H     1 <1>   0.0800 
 27 H       -6.1910     1.2820     2.1680 H     1 <1>   0.0800 
 28 H       -6.4700    -0.2470     1.3850 H     1 <1>   0.0800 
 29 H       -6.6920     3.4210    -0.8600 H     1 <1>   0.0800 
 30 H       -6.3310     3.4570     0.8390 H     1 <1>   0.0800 
 31 H       -9.3450     0.3350    -1.5300 H     1 <1>   0.0800 
 32 H       -8.4540     0.4250     2.6570 H     1 <1>   0.0800 
 33 H       -8.6810     4.0750     0.4380 H     1 <1>   0.0800 
 34 H       -8.7870    -0.8670     0.5660 H     1 <1>   0.0800 
 35 H      -10.1030     0.2330     0.8230 H     1 <1>   0.0800 
 36 H      -10.2410     2.3920    -0.4890 H     1 <1>   0.0800 
 37 H       -9.0150     2.7880    -1.6520 H     1 <1>   0.0800 
 38 H       -9.7140     2.4450     1.9870 H     1 <1>   0.0800 
 39 H       -8.1250     2.8780     2.5340 H     1 <1>   0.0800 
@<TRIPOS>BOND
  1   1   2  1   
  2   1  16  1   
  3   2   3  1   
  4   2  17  1   
  5   2  18  1   
  6   3   4  1   
  7   3  19  1   
  8   3  20  1   
  9   4   5  1   
 10   4  21  1   
 11   4  22  1   
 12   5   6  1   
 13   5  23  1   
 14   5  24  1   
 15   6   7  1   
 16   6   8  1   
 17   6   9  1   
 18   7  10  1   
 19   7  25  1   
 20   7  26  1   
 21   8  11  1   
 22   8  27  1   
 23   8  28  1   
 24   9  12  1   
 25   9  29  1   
 26   9  30  1   
 27  10  13  1   
 28  10  14  1   
 29  10  31  1   
 30  11  13  1   
 31  11  15  1   
 32  11  32  1   
 33  12  14  1   
 34  12  15  1   
 35  12  33  1   
 36  13  34  1   
 37  13  35  1   
 38  14  36  1   
 39  14  37  1   
 40  15  38  1   
 41  15  39  1   
@<TRIPOS>SUBSTRUCTURE
  1 ****   6 GROUP 4 **** **** 0

# MOE 2024.06 (io_trps.svl 2023.06)
