@<TRIPOS>MOLECULE
8-Furan-2-ylmethyl-1,7-dimethyl-3-(1-methyl-2-oxo-propyl)-1H,8H-imidazo[2,1-f]pu
47 50 1 0 0 
SMALL
USER_CHARGES


@<TRIPOS>ATOM
  1 O        0.8930     0.0630    -0.1010 O.2   1 <1>  -0.5750 
  2 C        1.8710     0.7730    -0.2230 C.2   1 <1>   0.6860 
  3 N        1.7260     2.1490    -0.4000 N.am  1 <1>  -0.4260 
  4 N        3.1360     0.2010    -0.1810 N.am  1 <1>  -0.4420 
  5 C        2.8350     2.9600    -0.5900 C.2   1 <1>   0.6990 
  6 C        0.4410     2.8040     0.0200 C.3   1 <1>   0.2740 
  7 C        4.2300     1.0340    -0.2720 C.2   1 <1>   0.4200 
  8 C        3.3010    -1.2640     0.0530 C.3   1 <1>   0.0520 
  9 O        2.7130     4.1450    -0.8550 O.2   1 <1>  -0.5750 
 10 C        4.1260     2.3670    -0.4790 C.2   1 <1>   0.2700 
 11 C        0.1430     2.4560     1.4890 C.2   1 <1>   0.4420 
 12 C       -0.6700     2.5200    -1.0070 C.3   1 <1>  -0.2470 
 13 N        5.5480     0.7000    -0.1810 N.pl3 1 <1>  -0.7040 
 14 N        5.4390     2.8620    -0.5280 N.pl3 1 <1>  -0.6340 
 15 O        1.0230     2.4880     2.3010 O.2   1 <1>  -0.5750 
 16 C       -1.2660     2.0770     1.9030 C.3   1 <1>  -0.1870 
 17 C        6.2470     1.8270    -0.3370 C.cat 1 <1>   1.0690 
 18 C        6.2380     3.9780    -0.6780 C.2   1 <1>   0.2220 
 19 N        7.5340     2.2000    -0.3490 N.pl3 1 <1>  -0.5720 
 20 C        7.5230     3.5700    -0.5690 C.2   1 <1>   0.1570 
 21 C        8.7380     1.3470    -0.1450 C.3   1 <1>   0.3410 
 22 C        8.7960     4.3910    -0.6580 C.3   1 <1>  -0.1100 
 23 C        8.3660    -0.0730     0.2520 C.2   1 <1>  -0.0490 
 24 O        7.8450    -0.8800    -0.6550 O.3   1 <1>  -0.2870 
 25 C        8.4690    -0.7070     1.4400 C.2   1 <1>  -0.1580 
 26 C        7.6240    -2.0440    -0.0770 C.2   1 <1>  -0.0190 
 27 C        7.9800    -2.0010     1.2240 C.2   1 <1>  -0.1580 
 28 H        0.5730     3.8710     0.0160 H     1 <1>   0.0720 
 29 H        2.4680    -1.8050    -0.3640 H     1 <1>   0.0720 
 30 H        3.3400    -1.4580     1.1110 H     1 <1>   0.0720 
 31 H        4.2010    -1.6250    -0.4110 H     1 <1>   0.0720 
 32 H       -0.9580     1.4850    -1.0080 H     1 <1>   0.0720 
 33 H       -0.3380     2.7930    -1.9930 H     1 <1>   0.0720 
 34 H       -1.5400     3.1090    -0.7780 H     1 <1>   0.0720 
 35 H        6.0080    -0.2100    -0.0730 H     1 <1>   0.4440 
 36 H       -1.5650     1.1740     1.4030 H     1 <1>   0.0720 
 37 H       -1.9520     2.8670     1.6630 H     1 <1>   0.0720 
 38 H       -1.2970     1.9040     2.9640 H     1 <1>   0.0720 
 39 H        5.8300     4.9630    -0.8490 H     1 <1>   0.1420 
 40 H        9.3450     1.7790     0.6320 H     1 <1>   0.0720 
 41 H        9.3180     1.3210    -1.0520 H     1 <1>   0.0720 
 42 H        9.3470     4.3280     0.2640 H     1 <1>   0.0720 
 43 H        8.5620     5.4250    -0.8440 H     1 <1>   0.0720 
 44 H        9.4160     4.0340    -1.4610 H     1 <1>   0.0720 
 45 H        8.8480    -0.3430     2.3810 H     1 <1>   0.1420 
 46 H        7.2180    -2.8540    -0.6610 H     1 <1>   0.1420 
 47 H        7.9270    -2.7820     1.9640 H     1 <1>   0.1420 
@<TRIPOS>BOND
  1   1   2  2   
  2   2   3  am  
  3   2   4  am  
  4   3   5  am  
  5   3   6  1   
  6   4   7  1   
  7   4   8  1   
  8   5   9  2   
  9   5  10  1   
 10   6  11  1   
 11   6  12  1   
 12   6  28  1   
 13   7  10  2   
 14   7  13  1   
 15   8  29  1   
 16   8  30  1   
 17   8  31  1   
 18  10  14  1   
 19  11  15  2   
 20  11  16  1   
 21  12  32  1   
 22  12  33  1   
 23  12  34  1   
 24  13  17  ar  
 25  13  35  1   
 26  14  17  ar  
 27  14  18  1   
 28  16  36  1   
 29  16  37  1   
 30  16  38  1   
 31  17  19  ar  
 32  18  20  2   
 33  18  39  1   
 34  19  20  1   
 35  19  21  1   
 36  20  22  1   
 37  21  23  1   
 38  21  40  1   
 39  21  41  1   
 40  22  42  1   
 41  22  43  1   
 42  22  44  1   
 43  23  24  1   
 44  23  25  2   
 45  24  26  1   
 46  25  27  1   
 47  25  45  1   
 48  26  27  2   
 49  26  46  1   
 50  27  47  1   
@<TRIPOS>SUBSTRUCTURE
  1 ****   7 GROUP 4 **** **** 0

# MOE 2024.06 (io_trps.svl 2023.06)
