@<TRIPOS>MOLECULE
8-(3-Methoxy-propyl)-1,6,7-trimethyl-3-(2-methyl-allyl)-1H,8H-imidazo[2,1-f]puri
52 54 1 0 0 
SMALL
USER_CHARGES


@<TRIPOS>ATOM
  1 O        1.5500    -0.5410     1.2370 O.2   1 <1>  -0.5740 
  2 C        2.2760     0.3940     0.9640 C.2   1 <1>   0.6860 
  3 N        1.7560     1.6750     0.8430 N.am  1 <1>  -0.4250 
  4 N        3.6360     0.1790     0.7810 N.am  1 <1>  -0.4410 
  5 C        2.5760     2.7780     0.6570 C.2   1 <1>   0.7000 
  6 C        0.2840     1.8670     0.7890 C.3   1 <1>   0.2720 
  7 C        4.4410     1.2730     0.5430 C.2   1 <1>   0.4210 
  8 C        4.2160    -1.1940     0.8580 C.3   1 <1>   0.0530 
  9 O        2.1240     3.9120     0.6820 O.2   1 <1>  -0.5740 
 10 C        3.9700     2.5420     0.4690 C.2   1 <1>   0.2710 
 11 C       -0.1630     1.9340    -0.6680 C.2   1 <1>  -0.2830 
 12 N        5.7880     1.2840     0.3480 N.pl3 1 <1>  -0.7030 
 13 N        5.0860     3.3590     0.2070 N.pl3 1 <1>  -0.6330 
 14 C       -0.5070     3.0770    -1.2670 C.2   1 <1>  -0.3060 
 15 C       -0.2030     0.5940    -1.3880 C.3   1 <1>  -0.1090 
 16 C        6.1360     2.5520     0.1440 C.cat 1 <1>   1.0690 
 17 C        5.5520     4.6330    -0.0380 C.2   1 <1>   0.2340 
 18 N        7.2650     3.2160    -0.1220 N.pl3 1 <1>  -0.5720 
 19 C        6.8900     4.5470    -0.2400 C.2   1 <1>   0.1580 
 20 C        4.5990     5.8130    -0.0460 C.3   1 <1>  -0.1090 
 21 C        8.6290     2.6290    -0.2250 C.3   1 <1>   0.1610 
 22 C        7.8990     5.6390    -0.5480 C.3   1 <1>  -0.1090 
 23 C        8.7250     1.6410    -1.3980 C.3   1 <1>  -0.1670 
 24 C        9.0120     0.2040    -0.9500 C.3   1 <1>   0.1130 
 25 O        8.0130    -0.2180    -0.0740 O.3   1 <1>  -0.5640 
 26 C        8.2370    -1.5030     0.4220 C.3   1 <1>   0.0320 
 27 H        0.0240     2.7840     1.2900 H     1 <1>   0.0730 
 28 H       -0.2310     1.0710     1.2980 H     1 <1>   0.0730 
 29 H        3.4600    -1.9370     0.6640 H     1 <1>   0.0730 
 30 H        4.6200    -1.3620     1.8410 H     1 <1>   0.0730 
 31 H        4.9950    -1.3120     0.1250 H     1 <1>   0.0730 
 32 H        6.4750     0.5190     0.2750 H     1 <1>   0.4450 
 33 H       -0.8340     3.1510    -2.2910 H     1 <1>   0.1430 
 34 H       -0.4910     4.0410    -0.7860 H     1 <1>   0.1430 
 35 H        0.7820     0.1710    -1.4650 H     1 <1>   0.0730 
 36 H       -0.5960     0.7110    -2.3830 H     1 <1>   0.0730 
 37 H       -0.8340    -0.0960    -0.8560 H     1 <1>   0.0730 
 38 H        4.1200     5.9040     0.9120 H     1 <1>   0.0730 
 39 H        3.8400     5.6670    -0.7950 H     1 <1>   0.0730 
 40 H        5.1170     6.7290    -0.2580 H     1 <1>   0.0730 
 41 H        8.8720     2.1380     0.7030 H     1 <1>   0.0730 
 42 H        9.3500     3.4150    -0.3680 H     1 <1>   0.0730 
 43 H        8.3870     5.4380    -1.4850 H     1 <1>   0.0730 
 44 H        8.6420     5.6870     0.2290 H     1 <1>   0.0730 
 45 H        7.4200     6.5980    -0.6160 H     1 <1>   0.0730 
 46 H        9.5450     1.9460    -2.0240 H     1 <1>   0.0730 
 47 H        7.8420     1.6600    -2.0120 H     1 <1>   0.0730 
 48 H        9.9610     0.1530    -0.4410 H     1 <1>   0.0730 
 49 H        9.0290    -0.4580    -1.8010 H     1 <1>   0.0730 
 50 H        8.2580    -2.2030    -0.3960 H     1 <1>   0.0730 
 51 H        7.4370    -1.7570     1.0950 H     1 <1>   0.0730 
 52 H        9.1730    -1.5230     0.9550 H     1 <1>   0.0730 
@<TRIPOS>BOND
  1   1   2  2   
  2   2   3  am  
  3   2   4  am  
  4   3   5  am  
  5   3   6  1   
  6   4   7  1   
  7   4   8  1   
  8   5   9  2   
  9   5  10  1   
 10   6  11  1   
 11   6  27  1   
 12   6  28  1   
 13   7  10  2   
 14   7  12  1   
 15   8  29  1   
 16   8  30  1   
 17   8  31  1   
 18  10  13  1   
 19  11  14  2   
 20  11  15  1   
 21  12  16  ar  
 22  12  32  1   
 23  13  16  ar  
 24  13  17  1   
 25  14  33  1   
 26  14  34  1   
 27  15  35  1   
 28  15  36  1   
 29  15  37  1   
 30  16  18  ar  
 31  17  19  2   
 32  17  20  1   
 33  18  19  1   
 34  18  21  1   
 35  19  22  1   
 36  20  38  1   
 37  20  39  1   
 38  20  40  1   
 39  21  23  1   
 40  21  41  1   
 41  21  42  1   
 42  22  43  1   
 43  22  44  1   
 44  22  45  1   
 45  23  24  1   
 46  23  46  1   
 47  23  47  1   
 48  24  25  1   
 49  24  48  1   
 50  24  49  1   
 51  25  26  1   
 52  26  50  1   
 53  26  51  1   
 54  26  52  1   
@<TRIPOS>SUBSTRUCTURE
  1 ****  10 GROUP 4 **** **** 0

# MOE 2024.06 (io_trps.svl 2023.06)
