@<TRIPOS>MOLECULE
1-(4-[1,3,4]Oxadiazol-2-yl-benzenesulfonyl)-piperidine
35 37 1 0 0 
SMALL
USER_CHARGES


@<TRIPOS>ATOM
  1 S       -0.2450     0.1500    -1.9680 S.o2  1 <1>   1.4470 
  2 O        0.6090     1.1550    -2.5660 O.2   1 <1>  -0.6500 
  3 O       -0.7860    -0.9040    -2.7980 O.2   1 <1>  -0.6500 
  4 N        0.6550    -0.5870    -0.7340 N.am  1 <1>  -0.8490 
  5 C       -1.6050     0.9480    -1.0670 C.ar  1 <1>  -0.0090 
  6 C        1.5750    -1.5930    -1.2730 C.3   1 <1>   0.1960 
  7 C        1.3750     0.3970     0.0830 C.3   1 <1>   0.1960 
  8 C       -1.9440     2.2760    -1.2910 C.ar  1 <1>  -0.1500 
  9 C       -2.3510     0.2480    -0.1280 C.ar  1 <1>  -0.1500 
 10 C        2.2590    -2.3530    -0.1310 C.3   1 <1>  -0.1600 
 11 C        2.0360    -0.2930     1.2790 C.3   1 <1>  -0.1600 
 12 C       -2.9790     2.8820    -0.6010 C.ar  1 <1>  -0.1500 
 13 C       -3.3860     0.8510     0.5640 C.ar  1 <1>  -0.1500 
 14 C        2.9910    -1.4010     0.8220 C.3   1 <1>  -0.1600 
 15 C       -3.7290     2.1860     0.3480 C.ar  1 <1>   0.0530 
 16 C       -4.8130     2.8110     1.0790 C.2   1 <1>   0.4250 
 17 O       -5.1320     4.0620     0.8400 O.3   1 <1>  -0.2800 
 18 N       -5.5470     2.2640     1.9900 N.2   1 <1>  -0.3380 
 19 C       -6.1130     4.2120     1.6790 C.2   1 <1>   0.3280 
 20 N       -6.3960     3.1860     2.3780 N.2   1 <1>  -0.3380 
 21 H        2.3130    -1.1170    -1.8990 H     1 <1>   0.0800 
 22 H        1.0300    -2.3010    -1.8760 H     1 <1>   0.0800 
 23 H        0.6880     1.1430     0.4470 H     1 <1>   0.0800 
 24 H        2.1260     0.8920    -0.5130 H     1 <1>   0.0800 
 25 H       -1.3870     2.8450    -2.0190 H     1 <1>   0.1500 
 26 H       -2.1120    -0.7860     0.0630 H     1 <1>   0.1500 
 27 H        2.9570    -3.0600    -0.5430 H     1 <1>   0.0800 
 28 H        1.5120    -2.9060     0.4100 H     1 <1>   0.0800 
 29 H        1.2680    -0.7090     1.9080 H     1 <1>   0.0800 
 30 H        2.5770     0.4350     1.8570 H     1 <1>   0.0800 
 31 H       -3.2060     3.9140    -0.8060 H     1 <1>   0.1500 
 32 H       -3.9400     0.2730     1.2850 H     1 <1>   0.1500 
 33 H        3.8320    -0.9610     0.3120 H     1 <1>   0.0800 
 34 H        3.3620    -1.9450     1.6740 H     1 <1>   0.0800 
 35 H       -6.6120     5.1640     1.7320 H     1 <1>   0.1500 
@<TRIPOS>BOND
  1   1   2  2   
  2   1   3  2   
  3   1   4  am  
  4   1   5  1   
  5   4   6  1   
  6   4   7  1   
  7   5   8  ar  
  8   5   9  ar  
  9   6  10  1   
 10   6  21  1   
 11   6  22  1   
 12   7  11  1   
 13   7  23  1   
 14   7  24  1   
 15   8  12  ar  
 16   8  25  1   
 17   9  13  ar  
 18   9  26  1   
 19  10  14  1   
 20  10  27  1   
 21  10  28  1   
 22  11  14  1   
 23  11  29  1   
 24  11  30  1   
 25  12  15  ar  
 26  12  31  1   
 27  13  15  ar  
 28  13  32  1   
 29  14  33  1   
 30  14  34  1   
 31  15  16  1   
 32  16  17  1   
 33  16  18  2   
 34  17  19  1   
 35  18  20  1   
 36  19  20  2   
 37  19  35  1   
@<TRIPOS>SUBSTRUCTURE
  1 ****   5 GROUP 4 **** **** 0

# MOE 2024.06 (io_trps.svl 2023.06)
