@<TRIPOS>MOLECULE
N-[2-(5-Chloro-1H-indol-3-yl)-ethyl]-propionamide
32 33 1 0 0 
SMALL
USER_CHARGES


@<TRIPOS>ATOM
  1 CL       1.0340     0.6280    -2.2950 Cl    1 <1>  -0.1770 
  2 C        2.1750    -0.3680    -1.4230 C.ar  1 <1>   0.1770 
  3 C        3.2740     0.2140    -0.8400 C.ar  1 <1>  -0.1500 
  4 C        1.9330    -1.7430    -1.3430 C.ar  1 <1>  -0.1500 
  5 C        4.1740    -0.6020    -0.1480 C.ar  1 <1>   0.0000 
  6 C        2.8130    -2.5530    -0.6640 C.ar  1 <1>  -0.1500 
  7 C        3.9370    -1.9720    -0.0660 C.ar  1 <1>  -0.1520 
  8 C        5.3770    -0.3590     0.5530 C.2   1 <1>  -0.1810 
  9 N        4.9530    -2.5400     0.6570 N.pl3 1 <1>   0.0330 
 10 C        5.8200    -1.5510     1.0260 C.2   1 <1>  -0.3020 
 11 C        5.9820     1.0280     0.6920 C.3   1 <1>   0.0210 
 12 C        7.3360     1.0010     1.4010 C.3   1 <1>   0.1400 
 13 N        7.9000     2.3700     1.4650 N.am  1 <1>  -0.7300 
 14 C        8.8340     2.9450     0.6730 C.2   1 <1>   0.5690 
 15 O        9.1630     4.0830     0.8900 O.2   1 <1>  -0.5700 
 16 C        9.4630     2.1630    -0.4760 C.3   1 <1>  -0.0990 
 17 C       10.3210     3.0100    -1.4330 C.3   1 <1>  -0.2400 
 18 H        3.4440     1.2710    -0.9110 H     1 <1>   0.1500 
 19 H        1.0560    -2.1450    -1.8180 H     1 <1>   0.1500 
 20 H        2.6480    -3.6130    -0.5890 H     1 <1>   0.1500 
 21 H        5.0360    -3.5380     0.8770 H     1 <1>   0.2700 
 22 H        6.6990    -1.7680     1.6060 H     1 <1>   0.1500 
 23 H        5.3000     1.6490     1.2450 H     1 <1>   0.0800 
 24 H        6.1070     1.4460    -0.2910 H     1 <1>   0.0800 
 25 H        8.0070     0.3470     0.8730 H     1 <1>   0.0800 
 26 H        7.2150     0.6210     2.4010 H     1 <1>   0.0800 
 27 H        7.5310     2.9780     2.2000 H     1 <1>   0.3700 
 28 H        8.6770     1.7020    -1.0440 H     1 <1>   0.0800 
 29 H       10.0740     1.3870    -0.0560 H     1 <1>   0.0800 
 30 H        9.7260     3.7930    -1.8690 H     1 <1>   0.0800 
 31 H       10.7200     2.3970    -2.2200 H     1 <1>   0.0800 
 32 H       11.1370     3.4620    -0.8960 H     1 <1>   0.0800 
@<TRIPOS>BOND
  1   1   2  1   
  2   2   3  ar  
  3   2   4  ar  
  4   3   5  ar  
  5   3  18  1   
  6   4   6  ar  
  7   4  19  1   
  8   5   7  ar  
  9   5   8  1   
 10   6   7  ar  
 11   6  20  1   
 12   7   9  1   
 13   8  10  2   
 14   8  11  1   
 15   9  10  1   
 16   9  21  1   
 17  10  22  1   
 18  11  12  1   
 19  11  23  1   
 20  11  24  1   
 21  12  13  1   
 22  12  25  1   
 23  12  26  1   
 24  13  14  am  
 25  13  27  1   
 26  14  15  2   
 27  14  16  1   
 28  16  17  1   
 29  16  28  1   
 30  16  29  1   
 31  17  30  1   
 32  17  31  1   
 33  17  32  1   
@<TRIPOS>SUBSTRUCTURE
  1 ****   8 GROUP 4 **** **** 0

# MOE 2024.06 (io_trps.svl 2023.06)
