@<TRIPOS>MOLECULE
3-[3-Naphthalen-2-yl-4-(piperidine-1-carbonyl)-pyrazol-1-yl]-propionitrile
49 52 1 0 0 
SMALL
USER_CHARGES


@<TRIPOS>ATOM
  1 O        0.8950    -0.4580    -2.1270 O.2   1 <1>  -0.5700 
  2 C        1.2630    -1.1760    -1.2160 C.2   1 <1>   0.7160 
  3 N        2.3860    -0.8300    -0.4930 N.am  1 <1>  -0.6600 
  4 C        0.5190    -2.3690    -0.9110 C.2   1 <1>  -0.0860 
  5 C        3.2870     0.2780    -0.9190 C.3   1 <1>   0.1400 
  6 C        2.8040    -1.5060     0.7660 C.3   1 <1>   0.1400 
  7 C       -0.8090    -2.4380    -0.4530 C.2   1 <1>   0.2350 
  8 C        0.9070    -3.6690    -1.0080 C.2   1 <1>  -0.3020 
  9 C        4.7110    -0.2620    -1.0950 C.3   1 <1>  -0.1600 
 10 C        4.2170    -2.0730     0.5950 C.3   1 <1>  -0.1600 
 11 N       -1.1840    -3.6850    -0.2970 N.2   1 <1>  -0.7070 
 12 C       -1.6800    -1.3160    -0.1640 C.ar  1 <1>   0.0540 
 13 N       -0.1300    -4.4300    -0.6430 N.pl3 1 <1>   0.3140 
 14 C        5.2100    -0.9830     0.1660 C.3   1 <1>  -0.1600 
 15 C       -1.2420    -0.1490     0.4240 C.ar  1 <1>  -0.1500 
 16 C       -3.0520    -1.4040    -0.4760 C.ar  1 <1>  -0.1500 
 17 C       -0.1760    -5.9020    -0.6080 C.3   1 <1>   0.0960 
 18 C       -2.0990     0.9320     0.7030 C.ar  1 <1>   0.0000 
 19 C       -3.9140    -0.3760    -0.2150 C.ar  1 <1>  -0.1500 
 20 C       -0.7020    -6.3920     0.7440 C.3   1 <1>   0.0400 
 21 C       -3.4660     0.8190     0.3790 C.ar  1 <1>   0.0000 
 22 C       -1.6420     2.1280     1.2960 C.ar  1 <1>  -0.1500 
 23 C       -0.6380    -7.8730     0.7990 C.1   1 <1>   0.3570 
 24 C       -4.3250     1.8990     0.6630 C.ar  1 <1>  -0.1500 
 25 C       -2.4970     3.1620     1.5610 C.ar  1 <1>  -0.1500 
 26 N       -0.5630    -9.0070     0.8130 N.1   1 <1>  -0.5570 
 27 C       -3.8550     3.0470     1.2410 C.ar  1 <1>  -0.1500 
 28 H        3.2750     1.0480    -0.1670 H     1 <1>   0.0800 
 29 H        2.9520     0.7120    -1.8450 H     1 <1>   0.0800 
 30 H        2.1230    -2.2950     1.0320 H     1 <1>   0.0800 
 31 H        2.7980    -0.7850     1.5650 H     1 <1>   0.0800 
 32 H        1.8540    -4.0610    -1.3280 H     1 <1>   0.1500 
 33 H        5.3720     0.5530    -1.3310 H     1 <1>   0.0800 
 34 H        4.7200    -0.9410    -1.9300 H     1 <1>   0.0800 
 35 H        4.1920    -2.8540    -0.1440 H     1 <1>   0.0800 
 36 H        4.5400    -2.5100     1.5240 H     1 <1>   0.0800 
 37 H        5.3220    -0.2690     0.9640 H     1 <1>   0.0800 
 38 H        6.1740    -1.4230    -0.0240 H     1 <1>   0.0800 
 39 H       -0.2100    -0.0390     0.6940 H     1 <1>   0.1500 
 40 H       -3.4060    -2.3130    -0.9300 H     1 <1>   0.1500 
 41 H        0.8140    -6.2820    -0.7830 H     1 <1>   0.0800 
 42 H       -0.8220    -6.2370    -1.3990 H     1 <1>   0.0800 
 43 H       -4.9560    -0.4650    -0.4630 H     1 <1>   0.1500 
 44 H       -1.7240    -6.0850     0.8800 H     1 <1>   0.0800 
 45 H       -0.1050    -5.9900     1.5430 H     1 <1>   0.0800 
 46 H       -0.5980     2.2120     1.5370 H     1 <1>   0.1500 
 47 H       -5.3660     1.8040     0.4130 H     1 <1>   0.1500 
 48 H       -2.1420     4.0710     2.0130 H     1 <1>   0.1500 
 49 H       -4.5150     3.8690     1.4550 H     1 <1>   0.1500 
@<TRIPOS>BOND
  1   1   2  2   
  2   2   3  am  
  3   2   4  1   
  4   3   5  1   
  5   3   6  1   
  6   4   7  1   
  7   4   8  2   
  8   5   9  1   
  9   5  28  1   
 10   5  29  1   
 11   6  10  1   
 12   6  30  1   
 13   6  31  1   
 14   7  11  2   
 15   7  12  1   
 16   8  13  1   
 17   8  32  1   
 18   9  14  1   
 19   9  33  1   
 20   9  34  1   
 21  10  14  1   
 22  10  35  1   
 23  10  36  1   
 24  11  13  1   
 25  12  15  ar  
 26  12  16  ar  
 27  13  17  1   
 28  14  37  1   
 29  14  38  1   
 30  15  18  ar  
 31  15  39  1   
 32  16  19  ar  
 33  16  40  1   
 34  17  20  1   
 35  17  41  1   
 36  17  42  1   
 37  18  21  ar  
 38  18  22  ar  
 39  19  21  ar  
 40  19  43  1   
 41  20  23  1   
 42  20  44  1   
 43  20  45  1   
 44  21  24  ar  
 45  22  25  ar  
 46  22  46  1   
 47  23  26  3   
 48  24  27  ar  
 49  24  47  1   
 50  25  27  ar  
 51  25  48  1   
 52  27  49  1   
@<TRIPOS>SUBSTRUCTURE
  1 ****   7 GROUP 4 **** **** 0

# MOE 2024.06 (io_trps.svl 2023.06)
