@<TRIPOS>MOLECULE
N-(1-Methyl-2-pyrrolidin-1-ylmethyl-1H-benzoimidazol-5-yl)-2-phenoxy-acetamide
52 55 1 0 0 
SMALL
USER_CHARGES


@<TRIPOS>ATOM
  1 O       -0.2470     1.3490     2.8300 O.2   1 <1>  -0.5700 
  2 C       -0.1360     1.4880     1.6360 C.2   1 <1>   0.5690 
  3 N        0.9910     1.1590     0.9330 N.am  1 <1>  -0.5470 
  4 C       -1.3160     2.0740     0.8730 C.3   1 <1>   0.1810 
  5 C        2.2260     0.6240     1.3420 C.ar  1 <1>   0.1170 
  6 O       -1.0130     2.2360    -0.5080 O.3   1 <1>  -0.3630 
  7 C        3.3370     0.8330     0.5490 C.ar  1 <1>  -0.1500 
  8 C        2.3630    -0.1270     2.5240 C.ar  1 <1>  -0.1500 
  9 C       -1.9320     2.7380    -1.3700 C.ar  1 <1>   0.0830 
 10 C        4.5700     0.3110     0.9310 C.ar  1 <1>   0.2270 
 11 C        3.5770    -0.6460     2.9110 C.ar  1 <1>  -0.1500 
 12 C       -3.2100     3.1440    -0.9910 C.ar  1 <1>  -0.1500 
 13 C       -1.5510     2.8410    -2.6990 C.ar  1 <1>  -0.1500 
 14 N        5.7750     0.4020     0.3050 N.2   1 <1>  -0.5650 
 15 C        4.6890    -0.4170     2.0980 C.ar  1 <1>  -0.1520 
 16 C       -4.0860     3.6460    -1.9390 C.ar  1 <1>  -0.1500 
 17 C       -2.4280     3.3420    -3.6440 C.ar  1 <1>  -0.1500 
 18 C        6.5880    -0.2460     1.0750 C.2   1 <1>   0.0060 
 19 N        5.9980    -0.7720     2.1880 N.pl3 1 <1>   0.0480 
 20 C       -3.6970     3.7450    -3.2640 C.ar  1 <1>  -0.1500 
 21 C        8.0730    -0.3950     0.7640 C.3   1 <1>   0.5230 
 22 C        6.5730    -1.5480     3.3070 C.3   1 <1>   0.0160 
 23 N        8.2750     0.0060    -0.6510 N.4   1 <1>  -0.9590 
 24 C        7.9740    -1.0590    -1.6290 C.3   1 <1>   0.3430 
 25 C        9.5930     0.5770    -0.9970 C.3   1 <1>   0.3430 
 26 C        8.5780    -0.5410    -2.9260 C.3   1 <1>  -0.1600 
 27 C        9.6740     0.4510    -2.5140 C.3   1 <1>  -0.1600 
 28 H        0.9240     1.4010    -0.0580 H     1 <1>   0.3700 
 29 H       -1.5580     3.0370     1.2840 H     1 <1>   0.0800 
 30 H       -2.1580     1.4120     0.9620 H     1 <1>   0.0800 
 31 H        3.2790     1.3980    -0.3600 H     1 <1>   0.1500 
 32 H        1.4980    -0.3000     3.1380 H     1 <1>   0.1500 
 33 H        3.6670    -1.2150     3.8190 H     1 <1>   0.1500 
 34 H       -3.5440     3.0820     0.0260 H     1 <1>   0.1500 
 35 H       -0.5660     2.5270    -2.9910 H     1 <1>   0.1500 
 36 H       -5.0730     3.9600    -1.6480 H     1 <1>   0.1500 
 37 H       -2.1250     3.4190    -4.6740 H     1 <1>   0.1500 
 38 H       -4.3800     4.1350    -3.9990 H     1 <1>   0.1500 
 39 H        8.3950    -1.4110     0.9170 H     1 <1>   0.0800 
 40 H        8.6290     0.2570     1.4160 H     1 <1>   0.0800 
 41 H        7.6360    -1.6490     3.1960 H     1 <1>   0.0800 
 42 H        6.3590    -1.0420     4.2320 H     1 <1>   0.0800 
 43 H        6.1210    -2.5240     3.3290 H     1 <1>   0.0800 
 44 H        7.5350     0.7200    -0.7920 H     1 <1>   0.4500 
 45 H        6.9100    -1.2250    -1.7180 H     1 <1>   0.0800 
 46 H        8.4620    -1.9750    -1.3410 H     1 <1>   0.0800 
 47 H       10.3780    -0.0080    -0.5460 H     1 <1>   0.0800 
 48 H        9.6770     1.6040    -0.6780 H     1 <1>   0.0800 
 49 H        7.8170    -0.0370    -3.4970 H     1 <1>   0.0800 
 50 H        8.9670    -1.3520    -3.5170 H     1 <1>   0.0800 
 51 H       10.6500     0.1030    -2.8040 H     1 <1>   0.0800 
 52 H        9.5050     1.4100    -2.9730 H     1 <1>   0.0800 
@<TRIPOS>BOND
  1   1   2  2   
  2   2   3  am  
  3   2   4  1   
  4   3   5  1   
  5   3  28  1   
  6   4   6  1   
  7   4  29  1   
  8   4  30  1   
  9   5   7  ar  
 10   5   8  ar  
 11   6   9  1   
 12   7  10  ar  
 13   7  31  1   
 14   8  11  ar  
 15   8  32  1   
 16   9  12  ar  
 17   9  13  ar  
 18  10  14  1   
 19  10  15  ar  
 20  11  15  ar  
 21  11  33  1   
 22  12  16  ar  
 23  12  34  1   
 24  13  17  ar  
 25  13  35  1   
 26  14  18  2   
 27  15  19  1   
 28  16  20  ar  
 29  16  36  1   
 30  17  20  ar  
 31  17  37  1   
 32  18  19  1   
 33  18  21  1   
 34  19  22  1   
 35  20  38  1   
 36  21  23  1   
 37  21  39  1   
 38  21  40  1   
 39  22  41  1   
 40  22  42  1   
 41  22  43  1   
 42  23  24  1   
 43  23  25  1   
 44  23  44  1   
 45  24  26  1   
 46  24  45  1   
 47  24  46  1   
 48  25  27  1   
 49  25  47  1   
 50  25  48  1   
 51  26  27  1   
 52  26  49  1   
 53  26  50  1   
 54  27  51  1   
 55  27  52  1   
@<TRIPOS>SUBSTRUCTURE
  1 ****   7 GROUP 4 **** **** 0

# MOE 2024.06 (io_trps.svl 2023.06)
