@<TRIPOS>MOLECULE
8-(2-Dimethylamino-ethylamino)-7-(2-hydroxy-propyl)-1,3-dimethyl-3,7-dihydro-pur
49 50 1 0 0 
SMALL
USER_CHARGES


@<TRIPOS>ATOM
  1 O        0.8650     0.7700     1.4310 O.2   1 <1>  -0.5750 
  2 C        1.8680     1.2110     0.9100 C.2   1 <1>   0.6860 
  3 N        1.8810     2.5100     0.4120 N.am  1 <1>  -0.4260 
  4 N        3.0020     0.4160     0.8110 N.am  1 <1>  -0.4420 
  5 C        3.0190     3.0430    -0.1790 C.2   1 <1>   0.6990 
  6 C        0.6490     3.3480     0.5530 C.3   1 <1>   0.0520 
  7 C        4.1140     0.9460     0.1870 C.2   1 <1>   0.4200 
  8 C        2.9960    -0.9800     1.3440 C.3   1 <1>   0.0520 
  9 O        3.0360     4.1990    -0.5670 O.2   1 <1>  -0.5750 
 10 C        4.1710     2.2000    -0.3120 C.2   1 <1>   0.2700 
 11 N        5.3130     0.3360    -0.0300 N.pl3 1 <1>  -0.7040 
 12 N        5.4620     2.3460    -0.8640 N.pl3 1 <1>  -0.7680 
 13 C        6.1090     1.2060    -0.6420 C.cat 1 <1>   1.0680 
 14 C        5.9120     3.5490    -1.6460 C.3   1 <1>   0.3480 
 15 N        7.3790     0.9910    -0.9750 N.pl3 1 <1>  -0.7180 
 16 C        7.0380     4.3660    -0.9650 C.3   1 <1>   0.1930 
 17 C        8.2480    -0.2110    -0.8280 C.3   1 <1>   0.1600 
 18 O        8.2120     3.6210    -0.8830 O.3   1 <1>  -0.6840 
 19 C        6.6930     4.8210     0.4530 C.3   1 <1>  -0.2470 
 20 C        9.5690     0.1390    -0.1040 C.3   1 <1>   0.3370 
 21 N       10.5090    -1.0250     0.0220 N.4   1 <1>  -0.9610 
 22 C       11.6500    -0.6630     0.9220 C.3   1 <1>   0.2560 
 23 C       11.0570    -1.4800    -1.2970 C.3   1 <1>   0.2560 
 24 H       -0.2290     2.7490     0.3790 H     1 <1>   0.0720 
 25 H        0.6460     4.1580    -0.1560 H     1 <1>   0.0720 
 26 H        0.6010     3.7530     1.5490 H     1 <1>   0.0720 
 27 H        2.2670    -1.0800     2.1310 H     1 <1>   0.0720 
 28 H        3.9580    -1.2330     1.7530 H     1 <1>   0.0720 
 29 H        2.7440    -1.6680     0.5560 H     1 <1>   0.0720 
 30 H        5.5430    -0.6170     0.2260 H     1 <1>   0.4440 
 31 H        5.0790     4.2070    -1.8130 H     1 <1>   0.0720 
 32 H        6.2510     3.2370    -2.6190 H     1 <1>   0.0720 
 33 H        7.8550     1.8630    -1.2680 H     1 <1>   0.4440 
 34 H        7.2490     5.2300    -1.5750 H     1 <1>   0.0720 
 35 H        8.4670    -0.5870    -1.8140 H     1 <1>   0.0720 
 36 H        7.7270    -0.9740    -0.2770 H     1 <1>   0.0720 
 37 H        8.9250     4.2170    -0.5590 H     1 <1>   0.3940 
 38 H        6.5570     3.9820     1.1120 H     1 <1>   0.0720 
 39 H        5.7790     5.3890     0.4390 H     1 <1>   0.0720 
 40 H        7.4670     5.4570     0.8430 H     1 <1>   0.0720 
 41 H        9.3310     0.5010     0.8830 H     1 <1>   0.0720 
 42 H       10.0670     0.9300    -0.6400 H     1 <1>   0.0720 
 43 H       10.0280    -1.8260     0.4630 H     1 <1>   0.4440 
 44 H       12.2090     0.1600     0.5060 H     1 <1>   0.0720 
 45 H       12.3140    -1.5050     1.0390 H     1 <1>   0.0720 
 46 H       11.2860    -0.3770     1.8950 H     1 <1>   0.0720 
 47 H       11.5790    -0.6720    -1.7840 H     1 <1>   0.0720 
 48 H       10.2630    -1.8200    -1.9420 H     1 <1>   0.0720 
 49 H       11.7480    -2.2950    -1.1510 H     1 <1>   0.0720 
@<TRIPOS>BOND
  1   1   2  2   
  2   2   3  am  
  3   2   4  am  
  4   3   5  am  
  5   3   6  1   
  6   4   7  1   
  7   4   8  1   
  8   5   9  2   
  9   5  10  1   
 10   6  24  1   
 11   6  25  1   
 12   6  26  1   
 13   7  10  2   
 14   7  11  1   
 15   8  27  1   
 16   8  28  1   
 17   8  29  1   
 18  10  12  1   
 19  11  13  ar  
 20  11  30  1   
 21  12  13  ar  
 22  12  14  1   
 23  13  15  ar  
 24  14  16  1   
 25  14  31  1   
 26  14  32  1   
 27  15  17  1   
 28  15  33  1   
 29  16  18  1   
 30  16  19  1   
 31  16  34  1   
 32  17  20  1   
 33  17  35  1   
 34  17  36  1   
 35  18  37  1   
 36  19  38  1   
 37  19  39  1   
 38  19  40  1   
 39  20  21  1   
 40  20  41  1   
 41  20  42  1   
 42  21  22  1   
 43  21  23  1   
 44  21  43  1   
 45  22  44  1   
 46  22  45  1   
 47  22  46  1   
 48  23  47  1   
 49  23  48  1   
 50  23  49  1   
@<TRIPOS>SUBSTRUCTURE
  1 ****  13 GROUP 4 **** **** 0

# MOE 2024.06 (io_trps.svl 2023.06)
