@<TRIPOS>MOLECULE
3-(2-Ethoxy-ethyl)-8-(2-methoxy-5-methyl-phenyl)-1,6-dimethyl-5,6,7,8-tetrahydro
61 64 1 0 0 
SMALL
USER_CHARGES


@<TRIPOS>ATOM
  1 O        0.1740     0.1530    -0.4850 O.2   1 <1>  -0.5740 
  2 C        1.2420     0.5180    -0.0390 C.2   1 <1>   0.6870 
  3 N        1.3740     1.7940     0.4990 N.am  1 <1>  -0.4250 
  4 N        2.3350    -0.3360    -0.0840 N.am  1 <1>  -0.4400 
  5 C        2.6070     2.2720     0.9220 C.2   1 <1>   0.7000 
  6 C        0.1630     2.6670     0.6140 C.3   1 <1>   0.1340 
  7 C        3.5530     0.1440     0.3550 C.2   1 <1>   0.4220 
  8 C        2.2070    -1.7230    -0.6230 C.3   1 <1>   0.0540 
  9 O        2.7320     3.4110     1.3380 O.2   1 <1>  -0.5740 
 10 C        3.7310     1.3910     0.8420 C.2   1 <1>   0.2720 
 11 C       -0.0870     3.4220    -0.6910 C.3   1 <1>   0.1140 
 12 N        4.7520    -0.4980     0.3630 N.pl3 1 <1>  -0.7030 
 13 N        5.0950     1.4980     1.1490 N.pl3 1 <1>  -0.7670 
 14 O       -1.1760     4.2610    -0.4960 O.3   1 <1>  -0.5640 
 15 C        5.6680     0.3400     0.8390 C.cat 1 <1>   1.0690 
 16 C        5.8140     2.6790     1.6700 C.3   1 <1>   0.3490 
 17 C       -1.5420     4.9810    -1.6250 C.3   1 <1>   0.1140 
 18 N        6.9820     0.0970     1.0100 N.pl3 1 <1>  -0.5790 
 19 C        7.3020     2.5670     1.2950 C.3   1 <1>  -0.0860 
 20 C       -2.7370     5.8470    -1.2490 C.3   1 <1>  -0.2450 
 21 C        7.5960    -1.1230     0.6550 C.ar  1 <1>   0.3060 
 22 C        7.8520     1.1590     1.5940 C.3   1 <1>   0.1620 
 23 C        8.1330     3.6360     2.0210 C.3   1 <1>  -0.2450 
 24 C        7.5290    -1.6360    -0.6500 C.ar  1 <1>   0.0760 
 25 C        8.2820    -1.8430     1.6250 C.ar  1 <1>  -0.1560 
 26 O        6.8450    -0.9220    -1.5920 O.3   1 <1>  -0.3670 
 27 C        8.1450    -2.8460    -0.9480 C.ar  1 <1>  -0.1560 
 28 C        8.8920    -3.0480     1.3260 C.ar  1 <1>  -0.1490 
 29 C        7.0900    -1.1280    -2.9700 C.3   1 <1>   0.0340 
 30 C        8.8210    -3.5440     0.0360 C.ar  1 <1>  -0.1560 
 31 C        9.6400    -3.8270     2.3940 C.3   1 <1>  -0.1030 
 32 H        0.2920     3.3760     1.4140 H     1 <1>   0.0740 
 33 H       -0.6990     2.0640     0.8430 H     1 <1>   0.0740 
 34 H        1.1830    -2.0540    -0.5780 H     1 <1>   0.0740 
 35 H        2.8030    -2.4060    -0.0450 H     1 <1>   0.0740 
 36 H        2.5300    -1.7440    -1.6490 H     1 <1>   0.0740 
 37 H       -0.3210     2.7330    -1.4850 H     1 <1>   0.0740 
 38 H        0.7650     4.0270    -0.9480 H     1 <1>   0.0740 
 39 H        4.9960    -1.3990    -0.0410 H     1 <1>   0.4460 
 40 H        5.6990     2.7170     2.7410 H     1 <1>   0.0740 
 41 H        5.3970     3.5810     1.2510 H     1 <1>   0.0740 
 42 H       -1.8050     4.2900    -2.4090 H     1 <1>   0.0740 
 43 H       -0.7120     5.5930    -1.9330 H     1 <1>   0.0740 
 44 H        7.3970     2.7480     0.2370 H     1 <1>   0.0740 
 45 H       -3.5560     5.2270    -0.9310 H     1 <1>   0.0740 
 46 H       -3.0510     6.4220    -2.1000 H     1 <1>   0.0740 
 47 H       -2.4690     6.5220    -0.4570 H     1 <1>   0.0740 
 48 H        8.8460     1.0730     1.1870 H     1 <1>   0.0740 
 49 H        7.9130     1.0100     2.6600 H     1 <1>   0.0740 
 50 H        8.0840     3.5080     3.0890 H     1 <1>   0.0740 
 51 H        7.7720     4.6220     1.7790 H     1 <1>   0.0740 
 52 H        9.1650     3.5780     1.7190 H     1 <1>   0.0740 
 53 H        8.3380    -1.4620     2.6280 H     1 <1>   0.1440 
 54 H        8.1110    -3.2690    -1.9360 H     1 <1>   0.1440 
 55 H        6.5850    -0.3560    -3.5230 H     1 <1>   0.0740 
 56 H        6.7060    -2.0900    -3.2590 H     1 <1>   0.0740 
 57 H        8.1500    -1.0700    -3.1520 H     1 <1>   0.0740 
 58 H        9.2960    -4.4800    -0.2070 H     1 <1>   0.1440 
 59 H        9.3420    -3.5150     3.3790 H     1 <1>   0.0740 
 60 H       10.6990    -3.6680     2.2880 H     1 <1>   0.0740 
 61 H        9.4390    -4.8790     2.2980 H     1 <1>   0.0740 
@<TRIPOS>BOND
  1   1   2  2   
  2   2   3  am  
  3   2   4  am  
  4   3   5  am  
  5   3   6  1   
  6   4   7  1   
  7   4   8  1   
  8   5   9  2   
  9   5  10  1   
 10   6  11  1   
 11   6  32  1   
 12   6  33  1   
 13   7  10  2   
 14   7  12  1   
 15   8  34  1   
 16   8  35  1   
 17   8  36  1   
 18  10  13  1   
 19  11  14  1   
 20  11  37  1   
 21  11  38  1   
 22  12  15  ar  
 23  12  39  1   
 24  13  15  ar  
 25  13  16  1   
 26  14  17  1   
 27  15  18  ar  
 28  16  19  1   
 29  16  40  1   
 30  16  41  1   
 31  17  20  1   
 32  17  42  1   
 33  17  43  1   
 34  18  21  1   
 35  18  22  1   
 36  19  22  1   
 37  19  23  1   
 38  19  44  1   
 39  20  45  1   
 40  20  46  1   
 41  20  47  1   
 42  21  24  ar  
 43  21  25  ar  
 44  22  48  1   
 45  22  49  1   
 46  23  50  1   
 47  23  51  1   
 48  23  52  1   
 49  24  26  1   
 50  24  27  ar  
 51  25  28  ar  
 52  25  53  1   
 53  26  29  1   
 54  27  30  ar  
 55  27  54  1   
 56  28  30  ar  
 57  28  31  1   
 58  29  55  1   
 59  29  56  1   
 60  29  57  1   
 61  30  58  1   
 62  31  59  1   
 63  31  60  1   
 64  31  61  1   
@<TRIPOS>SUBSTRUCTURE
  1 ****   7 GROUP 4 **** **** 0

# MOE 2024.06 (io_trps.svl 2023.06)
