@<TRIPOS>MOLECULE
4-(4-Ethoxy-3-methyl-phenyl)-4-hydroxy-butyric acid
34 34 1 0 0 
SMALL
USER_CHARGES


@<TRIPOS>ATOM
  1 O       -0.7790    -0.9610    -0.9010 O.co2 1 <1>  -0.9000 
  2 C       -1.4430    -0.5230     0.0420 C.2   1 <1>   0.9060 
  3 O       -1.1100    -0.6590     1.2220 O.co2 1 <1>  -0.9000 
  4 C       -2.7420     0.1820    -0.2600 C.3   1 <1>  -0.2660 
  5 C       -3.9380    -0.7790    -0.1150 C.3   1 <1>  -0.1600 
  6 C       -5.2990    -0.1490    -0.4440 C.3   1 <1>   0.3440 
  7 O       -5.5020     0.9120     0.4170 O.3   1 <1>  -0.6800 
  8 C       -6.5050    -1.0870    -0.3110 C.ar  1 <1>  -0.1440 
  9 C       -6.4070    -2.4120     0.1020 C.ar  1 <1>  -0.1500 
 10 C       -7.7610    -0.5870    -0.6260 C.ar  1 <1>  -0.1500 
 11 C       -7.5280    -3.2200     0.1990 C.ar  1 <1>  -0.1440 
 12 C       -8.8890    -1.3820    -0.5340 C.ar  1 <1>  -0.1500 
 13 C       -8.7810    -2.7060    -0.1210 C.ar  1 <1>   0.0820 
 14 C       -7.3790    -4.6650     0.6540 C.3   1 <1>  -0.0970 
 15 O       -9.8510    -3.5370    -0.0110 O.3   1 <1>  -0.3630 
 16 C      -11.1580    -3.1030    -0.3010 C.3   1 <1>   0.1200 
 17 C      -12.1070    -4.2740    -0.0690 C.3   1 <1>  -0.2400 
 18 H       -2.6900     0.5670    -1.2600 H     1 <1>   0.0800 
 19 H       -2.8320     1.0060     0.4220 H     1 <1>   0.0800 
 20 H       -3.9460    -1.1700     0.8870 H     1 <1>   0.0800 
 21 H       -3.7740    -1.6060    -0.7850 H     1 <1>   0.0800 
 22 H       -5.2730     0.2510    -1.4430 H     1 <1>   0.0800 
 23 H       -5.3650     0.5850     1.3250 H     1 <1>   0.4000 
 24 H       -5.4510    -2.8340     0.3540 H     1 <1>   0.1500 
 25 H       -7.8570     0.4370    -0.9420 H     1 <1>   0.1500 
 26 H       -9.8370    -0.9500    -0.7870 H     1 <1>   0.1500 
 27 H       -6.3530    -4.9050     0.8630 H     1 <1>   0.0800 
 28 H       -7.7370    -5.3250    -0.1150 H     1 <1>   0.0800 
 29 H       -7.9590    -4.8250     1.5450 H     1 <1>   0.0800 
 30 H      -11.1900    -2.7850    -1.3290 H     1 <1>   0.0800 
 31 H      -11.3970    -2.2830     0.3530 H     1 <1>   0.0800 
 32 H      -11.8470    -5.0930    -0.7150 H     1 <1>   0.0800 
 33 H      -13.1160    -3.9740    -0.2830 H     1 <1>   0.0800 
 34 H      -12.0520    -4.5950     0.9560 H     1 <1>   0.0800 
@<TRIPOS>BOND
  1   1   2  ar  
  2   2   3  ar  
  3   2   4  1   
  4   4   5  1   
  5   4  18  1   
  6   4  19  1   
  7   5   6  1   
  8   5  20  1   
  9   5  21  1   
 10   6   7  1   
 11   6   8  1   
 12   6  22  1   
 13   7  23  1   
 14   8   9  ar  
 15   8  10  ar  
 16   9  11  ar  
 17   9  24  1   
 18  10  12  ar  
 19  10  25  1   
 20  11  13  ar  
 21  11  14  1   
 22  12  13  ar  
 23  12  26  1   
 24  13  15  1   
 25  14  27  1   
 26  14  28  1   
 27  14  29  1   
 28  15  16  1   
 29  16  17  1   
 30  16  30  1   
 31  16  31  1   
 32  17  32  1   
 33  17  33  1   
 34  17  34  1   
@<TRIPOS>SUBSTRUCTURE
  1 ****   8 GROUP 4 **** **** 0

# MOE 2024.06 (io_trps.svl 2023.06)
