@<TRIPOS>MOLECULE
Furan-2-carboxylic acid cyclohexyl-[3-(4-methoxy-phenyl)-[1,2,4]oxadiazol-5-ylme
51 54 1 0 0 
SMALL
USER_CHARGES


@<TRIPOS>ATOM
  1 O        0.9780     0.8160    -0.7850 O.2   1 <1>  -0.5700 
  2 C        0.7900     1.8780    -0.2150 C.2   1 <1>   0.7150 
  3 N        1.7610     2.3160     0.6710 N.am  1 <1>  -0.6600 
  4 C       -0.4210     2.6080    -0.5410 C.2   1 <1>   0.0550 
  5 C        1.8400     3.7460     1.1220 C.3   1 <1>   0.2200 
  6 C        2.9260     1.4060     0.9670 C.3   1 <1>   0.3200 
  7 O       -1.0950     3.3330     0.3500 O.3   1 <1>  -0.2800 
  8 C       -1.0910     2.6670    -1.7260 C.2   1 <1>  -0.1500 
  9 C        2.4230     4.6300     0.0100 C.3   1 <1>  -0.1600 
 10 C        2.6110     3.9420     2.4400 C.3   1 <1>  -0.1600 
 11 C        4.1700     1.7660     0.1670 C.2   1 <1>   0.2980 
 12 C       -2.1520     3.8530    -0.2320 C.2   1 <1>  -0.0100 
 13 C       -2.2080     3.4780    -1.5270 C.2   1 <1>  -0.1500 
 14 C        2.4270     6.1080     0.4270 C.3   1 <1>  -0.1600 
 15 C        2.5980     5.4180     2.8620 C.3   1 <1>  -0.1600 
 16 O        4.1190     1.6950    -1.1380 O.3   1 <1>  -0.0190 
 17 N        5.2810     2.1480     0.6490 N.2   1 <1>  -0.5650 
 18 C        3.1730     6.3110     1.7530 C.3   1 <1>  -0.1600 
 19 N        5.2980     2.0770    -1.5200 N.2   1 <1>  -0.4100 
 20 C        5.9880     2.3480    -0.4690 C.2   1 <1>   0.4620 
 21 C        7.3620     2.8210    -0.4540 C.ar  1 <1>   0.0540 
 22 C        8.0210     3.1280     0.7380 C.ar  1 <1>  -0.1500 
 23 C        8.0820     2.9920    -1.6390 C.ar  1 <1>  -0.1500 
 24 C        9.3270     3.5800     0.7460 C.ar  1 <1>  -0.1500 
 25 C        9.3890     3.4440    -1.6400 C.ar  1 <1>  -0.1500 
 26 C       10.0230     3.7430    -0.4390 C.ar  1 <1>   0.0820 
 27 O       11.2990     4.1900    -0.3470 O.3   1 <1>  -0.3620 
 28 C       12.0970     4.3780    -1.4940 C.3   1 <1>   0.0400 
 29 H        0.8460     4.0970     1.3210 H     1 <1>   0.0800 
 30 H        2.6740     0.3830     0.7510 H     1 <1>   0.0800 
 31 H        3.1570     1.4400     2.0150 H     1 <1>   0.0800 
 32 H       -0.8230     2.1790    -2.6470 H     1 <1>   0.1500 
 33 H        1.8390     4.5230    -0.8870 H     1 <1>   0.0800 
 34 H        3.4340     4.3340    -0.2060 H     1 <1>   0.0800 
 35 H        3.6370     3.6450     2.3250 H     1 <1>   0.0800 
 36 H        2.1570     3.3500     3.2150 H     1 <1>   0.0800 
 37 H       -2.8130     4.4770     0.3440 H     1 <1>   0.1500 
 38 H       -2.9440     3.7310    -2.2700 H     1 <1>   0.1500 
 39 H        1.4120     6.4510     0.5320 H     1 <1>   0.0800 
 40 H        2.8950     6.6970    -0.3430 H     1 <1>   0.0800 
 41 H        3.1790     5.5420     3.7600 H     1 <1>   0.0800 
 42 H        1.5880     5.7220     3.0780 H     1 <1>   0.0800 
 43 H        3.1060     7.3430     2.0500 H     1 <1>   0.0800 
 44 H        4.2150     6.0760     1.6130 H     1 <1>   0.0800 
 45 H        7.5040     3.0110     1.6740 H     1 <1>   0.1500 
 46 H        7.6070     2.7660    -2.5790 H     1 <1>   0.1500 
 47 H        9.8180     3.8120     1.6750 H     1 <1>   0.1500 
 48 H        9.8950     3.5580    -2.5800 H     1 <1>   0.1500 
 49 H       13.0610     4.7300    -1.1750 H     1 <1>   0.0800 
 50 H       11.6310     5.1130    -2.1260 H     1 <1>   0.0800 
 51 H       12.2010     3.4380    -2.0050 H     1 <1>   0.0800 
@<TRIPOS>BOND
  1   1   2  2   
  2   2   3  am  
  3   2   4  1   
  4   3   5  1   
  5   3   6  1   
  6   4   7  1   
  7   4   8  2   
  8   5   9  1   
  9   5  10  1   
 10   5  29  1   
 11   6  11  1   
 12   6  30  1   
 13   6  31  1   
 14   7  12  1   
 15   8  13  1   
 16   8  32  1   
 17   9  14  1   
 18   9  33  1   
 19   9  34  1   
 20  10  15  1   
 21  10  35  1   
 22  10  36  1   
 23  11  16  1   
 24  11  17  2   
 25  12  13  2   
 26  12  37  1   
 27  13  38  1   
 28  14  18  1   
 29  14  39  1   
 30  14  40  1   
 31  15  18  1   
 32  15  41  1   
 33  15  42  1   
 34  16  19  1   
 35  17  20  1   
 36  18  43  1   
 37  18  44  1   
 38  19  20  2   
 39  20  21  1   
 40  21  22  ar  
 41  21  23  ar  
 42  22  24  ar  
 43  22  45  1   
 44  23  25  ar  
 45  23  46  1   
 46  24  26  ar  
 47  24  47  1   
 48  25  26  ar  
 49  25  48  1   
 50  26  27  1   
 51  27  28  1   
 52  28  49  1   
 53  28  50  1   
 54  28  51  1   
@<TRIPOS>SUBSTRUCTURE
  1 ****  11 GROUP 4 **** **** 0

# MOE 2024.06 (io_trps.svl 2023.06)
