@<TRIPOS>MOLECULE
7-Methyl-3-oxo-3,4-dihydro-2H-benzo[1,4]oxazine-6-sulfonic acid propylamide
35 36 1 0 0 
SMALL
USER_CHARGES


@<TRIPOS>ATOM
  1 S        0.1230     0.3270    -1.6550 S.o2  1 <1>   1.4470 
  2 O        0.9420     1.4590    -2.0180 O.2   1 <1>  -0.6500 
  3 O       -0.1440    -0.6790    -2.6590 O.2   1 <1>  -0.6500 
  4 N        1.0060    -0.4340    -0.4440 N.am  1 <1>  -0.9140 
  5 C       -1.4310     0.8840    -0.8790 C.ar  1 <1>  -0.0090 
  6 C        0.7390    -1.8490    -0.2240 C.3   1 <1>   0.1960 
  7 C       -1.4830     1.7110     0.2490 C.ar  1 <1>  -0.1430 
  8 C       -2.6380     0.4660    -1.4360 C.ar  1 <1>  -0.1500 
  9 C       -0.5930    -2.0470     0.5060 C.3   1 <1>  -0.1600 
 10 C       -2.7060     2.0830     0.7910 C.ar  1 <1>  -0.1500 
 11 C       -0.2200     2.2350     0.9240 C.3   1 <1>  -0.0970 
 12 C       -3.8620     0.8360    -0.9030 C.ar  1 <1>   0.1170 
 13 C       -0.7730    -3.5010     0.9540 C.3   1 <1>  -0.2400 
 14 C       -3.8900     1.6540     0.2240 C.ar  1 <1>   0.0830 
 15 N       -5.0650     0.4010    -1.4600 N.am  1 <1>  -0.5470 
 16 O       -5.0630     2.0390     0.7990 O.3   1 <1>  -0.3630 
 17 C       -6.2670     0.8370    -1.0110 C.2   1 <1>   0.5690 
 18 C       -6.2910     1.9150     0.0720 C.3   1 <1>   0.1810 
 19 O       -7.2950     0.4050    -1.4690 O.2   1 <1>  -0.5700 
 20 H        1.9630    -0.3440    -0.7820 H     1 <1>   0.4200 
 21 H        1.5280    -2.2460     0.3930 H     1 <1>   0.0800 
 22 H        0.7460    -2.3940    -1.1550 H     1 <1>   0.0800 
 23 H       -2.6240    -0.1650    -2.3070 H     1 <1>   0.1500 
 24 H       -1.4090    -1.7910    -0.1440 H     1 <1>   0.0800 
 25 H       -0.6250    -1.4070     1.3720 H     1 <1>   0.0800 
 26 H       -2.7550     2.7130     1.6610 H     1 <1>   0.1500 
 27 H        0.3160     1.4270     1.3880 H     1 <1>   0.0800 
 28 H       -0.4590     2.9560     1.6850 H     1 <1>   0.0800 
 29 H        0.4210     2.7170     0.2080 H     1 <1>   0.0800 
 30 H       -0.7590    -4.1620     0.1040 H     1 <1>   0.0800 
 31 H       -1.7170    -3.6150     1.4580 H     1 <1>   0.0800 
 32 H        0.0120    -3.7890     1.6320 H     1 <1>   0.0800 
 33 H       -5.0820    -0.2940    -2.2060 H     1 <1>   0.3700 
 34 H       -6.4930     2.8650    -0.3850 H     1 <1>   0.0800 
 35 H       -7.0680     1.6950     0.7800 H     1 <1>   0.0800 
@<TRIPOS>BOND
  1   1   2  2   
  2   1   3  2   
  3   1   4  am  
  4   1   5  1   
  5   4   6  1   
  6   4  20  1   
  7   5   7  ar  
  8   5   8  ar  
  9   6   9  1   
 10   6  21  1   
 11   6  22  1   
 12   7  10  ar  
 13   7  11  1   
 14   8  12  ar  
 15   8  23  1   
 16   9  13  1   
 17   9  24  1   
 18   9  25  1   
 19  10  14  ar  
 20  10  26  1   
 21  11  27  1   
 22  11  28  1   
 23  11  29  1   
 24  12  14  ar  
 25  12  15  1   
 26  13  30  1   
 27  13  31  1   
 28  13  32  1   
 29  14  16  1   
 30  15  17  am  
 31  15  33  1   
 32  16  18  1   
 33  17  18  1   
 34  17  19  2   
 35  18  34  1   
 36  18  35  1   
@<TRIPOS>SUBSTRUCTURE
  1 ****   8 GROUP 4 **** **** 0

# MOE 2024.06 (io_trps.svl 2023.06)
