@<TRIPOS>MOLECULE
8-(3-Chloro-phenyl)-3-ethyl-1-methyl-5,6,7,8-tetrahydro-1H-1,3,4b,8,9-pentaaza-f
44 47 1 0 0 
SMALL
USER_CHARGES


@<TRIPOS>ATOM
  1 CL      -3.3780    -1.2200     3.2080 Cl    1 <1>  -0.1850 
  2 C       -3.3940    -0.6020     1.5790 C.ar  1 <1>   0.1690 
  3 C       -4.1400     0.5240     1.3000 C.ar  1 <1>  -0.1580 
  4 C       -2.6700    -1.2500     0.5970 C.ar  1 <1>  -0.1580 
  5 C       -4.1780     1.0160     0.0030 C.ar  1 <1>   0.3040 
  6 C       -2.6930    -0.7560    -0.6960 C.ar  1 <1>  -0.1580 
  7 N       -4.9610     2.1340    -0.3040 N.pl3 1 <1>  -0.5810 
  8 C       -3.4440     0.3710    -0.9880 C.ar  1 <1>  -0.1580 
  9 C       -6.3070     2.1310    -0.2330 C.cat 1 <1>   1.0690 
 10 C       -4.2600     3.3720    -0.7460 C.3   1 <1>   0.1590 
 11 N       -7.0890     1.0900     0.0440 N.pl3 1 <1>  -0.7040 
 12 N       -7.0490     3.2100    -0.4410 N.pl3 1 <1>  -0.7680 
 13 C       -5.0560     4.6200    -0.3320 C.3   1 <1>  -0.1680 
 14 C       -8.3820     1.5200     0.0120 C.2   1 <1>   0.4200 
 15 C       -8.3920     2.8370    -0.2870 C.2   1 <1>   0.2690 
 16 C       -6.5220     4.5500    -0.7720 C.3   1 <1>   0.3470 
 17 N       -9.5270     0.7820     0.2400 N.am  1 <1>  -0.4420 
 18 C       -9.6440     3.5220    -0.3730 C.2   1 <1>   0.6990 
 19 C      -10.7490     1.4410     0.1930 C.2   1 <1>   0.6860 
 20 C       -9.4550    -0.6740     0.5660 C.3   1 <1>   0.0510 
 21 O       -9.6880     4.7070    -0.6610 O.2   1 <1>  -0.5750 
 22 N      -10.8000     2.7980    -0.1170 N.am  1 <1>  -0.4270 
 23 O      -11.7700     0.8270     0.4280 O.2   1 <1>  -0.5750 
 24 C      -12.1200     3.4950    -0.1380 C.3   1 <1>   0.1320 
 25 C      -12.4260     4.0670     1.2450 C.3   1 <1>  -0.2480 
 26 H       -4.6780     1.0090     2.0940 H     1 <1>   0.1420 
 27 H       -2.0940    -2.1260     0.8440 H     1 <1>   0.1420 
 28 H       -2.1270    -1.2500    -1.4690 H     1 <1>   0.1420 
 29 H       -3.4590     0.7470    -1.9960 H     1 <1>   0.1420 
 30 H       -4.1480     3.3490    -1.8170 H     1 <1>   0.0710 
 31 H       -3.2770     3.4110    -0.3050 H     1 <1>   0.0710 
 32 H       -6.7550     0.1490     0.2360 H     1 <1>   0.4440 
 33 H       -4.5990     5.4950    -0.7590 H     1 <1>   0.0710 
 34 H       -5.0110     4.7320     0.7380 H     1 <1>   0.0710 
 35 H       -7.0960     5.3110    -0.2690 H     1 <1>   0.0710 
 36 H       -6.6010     4.7090    -1.8350 H     1 <1>   0.0710 
 37 H       -9.2610    -0.8010     1.6170 H     1 <1>   0.0710 
 38 H       -8.6770    -1.1490    -0.0040 H     1 <1>   0.0710 
 39 H      -10.3850    -1.1610     0.3280 H     1 <1>   0.0710 
 40 H      -12.8970     2.8080    -0.4270 H     1 <1>   0.0710 
 41 H      -12.1060     4.2900    -0.8660 H     1 <1>   0.0710 
 42 H      -12.4740     3.2790     1.9760 H     1 <1>   0.0710 
 43 H      -13.3800     4.5630     1.2240 H     1 <1>   0.0710 
 44 H      -11.6800     4.7860     1.5330 H     1 <1>   0.0710 
@<TRIPOS>BOND
  1   1   2  1   
  2   2   3  ar  
  3   2   4  ar  
  4   3   5  ar  
  5   3  26  1   
  6   4   6  ar  
  7   4  27  1   
  8   5   7  1   
  9   5   8  ar  
 10   6   8  ar  
 11   6  28  1   
 12   7   9  ar  
 13   7  10  1   
 14   8  29  1   
 15   9  11  ar  
 16   9  12  ar  
 17  10  13  1   
 18  10  30  1   
 19  10  31  1   
 20  11  14  1   
 21  11  32  1   
 22  12  15  1   
 23  12  16  1   
 24  13  16  1   
 25  13  33  1   
 26  13  34  1   
 27  14  15  2   
 28  14  17  1   
 29  15  18  1   
 30  16  35  1   
 31  16  36  1   
 32  17  19  am  
 33  17  20  1   
 34  18  21  2   
 35  18  22  am  
 36  19  22  am  
 37  19  23  2   
 38  20  37  1   
 39  20  38  1   
 40  20  39  1   
 41  22  24  1   
 42  24  25  1   
 43  24  40  1   
 44  24  41  1   
 45  25  42  1   
 46  25  43  1   
 47  25  44  1   
@<TRIPOS>SUBSTRUCTURE
  1 ****  11 GROUP 4 **** **** 0

# MOE 2024.06 (io_trps.svl 2023.06)
