@<TRIPOS>MOLECULE
3-((E)-But-2-enyl)-8-(2-methoxy-5-methyl-phenyl)-1-methyl-7,8-dihydro-1H,6H-imid
52 55 1 0 0 
SMALL
USER_CHARGES


@<TRIPOS>ATOM
  1 O        1.1420     2.4350     3.0450 O.2   1 <1>  -0.5740 
  2 C        1.8570     2.1560     2.1040 C.2   1 <1>   0.6860 
  3 N        1.8740     2.9590     0.9700 N.am  1 <1>  -0.4250 
  4 N        2.6820     1.0400     2.1790 N.am  1 <1>  -0.4410 
  5 C        2.7680     2.7340    -0.0630 C.2   1 <1>   0.7000 
  6 C        0.8260     3.9960     0.7980 C.3   1 <1>   0.2720 
  7 C        3.5540     0.8050     1.1340 C.2   1 <1>   0.4210 
  8 C        2.6390     0.1350     3.3640 C.3   1 <1>   0.0520 
  9 O        2.8290     3.4830    -1.0240 O.2   1 <1>  -0.5740 
 10 C        3.6290     1.5990     0.0400 C.2   1 <1>   0.2710 
 11 C       -0.2840     3.4190    -0.0600 C.2   1 <1>  -0.2940 
 12 N        4.4750    -0.1990     1.0130 N.pl3 1 <1>  -0.7040 
 13 N        4.6340     1.0420    -0.7570 N.pl3 1 <1>  -0.7670 
 14 C       -1.4870     3.0560     0.3920 C.2   1 <1>  -0.2940 
 15 C        5.1080    -0.0110    -0.1360 C.cat 1 <1>   1.0690 
 16 C        5.3410     1.3060    -2.0210 C.3   1 <1>   0.3480 
 17 C       -2.5940     2.4830    -0.4710 C.3   1 <1>  -0.1090 
 18 N        6.0950    -0.6260    -0.7930 N.pl3 1 <1>  -0.5800 
 19 C        6.3580     0.1390    -2.0540 C.3   1 <1>   0.1610 
 20 C        6.8410    -1.7580    -0.3980 C.ar  1 <1>   0.3050 
 21 C        7.3250    -1.9210     0.9100 C.ar  1 <1>   0.0750 
 22 C        7.1040    -2.7490    -1.3360 C.ar  1 <1>  -0.1570 
 23 O        7.0720    -0.9430     1.8310 O.3   1 <1>  -0.3680 
 24 C        8.0490    -3.0610     1.2410 C.ar  1 <1>  -0.1570 
 25 C        7.8260    -3.8820    -1.0040 C.ar  1 <1>  -0.1510 
 26 C        7.8620    -0.8300     3.0000 C.3   1 <1>   0.0320 
 27 C        8.2970    -4.0320     0.2880 C.ar  1 <1>  -0.1570 
 28 C        8.1070    -4.9550    -2.0410 C.3   1 <1>  -0.1040 
 29 H        0.4310     4.2980     1.7530 H     1 <1>   0.0730 
 30 H        1.2380     4.8720     0.3270 H     1 <1>   0.0730 
 31 H        3.3890     0.4330     4.0760 H     1 <1>   0.0730 
 32 H        2.8110    -0.8840     3.0660 H     1 <1>   0.0730 
 33 H        1.6740     0.1850     3.8400 H     1 <1>   0.0730 
 34 H        0.0000     3.3300    -1.0950 H     1 <1>   0.1430 
 35 H        4.7790    -0.8950     1.6930 H     1 <1>   0.4450 
 36 H       -1.7720     3.1430     1.4290 H     1 <1>   0.1430 
 37 H        4.6630     1.2660    -2.8570 H     1 <1>   0.0730 
 38 H        5.8360     2.2630    -1.9930 H     1 <1>   0.0730 
 39 H       -3.4610     3.1170    -0.4230 H     1 <1>   0.0730 
 40 H       -2.8630     1.5020    -0.1200 H     1 <1>   0.0730 
 41 H       -2.2790     2.4080    -1.4960 H     1 <1>   0.0730 
 42 H        7.3690     0.5120    -2.0640 H     1 <1>   0.0730 
 43 H        6.1940    -0.4780    -2.9200 H     1 <1>   0.0730 
 44 H        6.7390    -2.6460    -2.3400 H     1 <1>   0.1430 
 45 H        8.4310    -3.2230     2.2320 H     1 <1>   0.1430 
 46 H        7.6120     0.0940     3.4900 H     1 <1>   0.0730 
 47 H        8.9020    -0.8240     2.7230 H     1 <1>   0.0730 
 48 H        7.6470    -1.6570     3.6540 H     1 <1>   0.0730 
 49 H        8.8620    -4.9090     0.5560 H     1 <1>   0.1430 
 50 H        9.0850    -4.8090    -2.4630 H     1 <1>   0.0730 
 51 H        7.3800    -4.9230    -2.8330 H     1 <1>   0.0730 
 52 H        8.0690    -5.9310    -1.5900 H     1 <1>   0.0730 
@<TRIPOS>BOND
  1   1   2  2   
  2   2   3  am  
  3   2   4  am  
  4   3   5  am  
  5   3   6  1   
  6   4   7  1   
  7   4   8  1   
  8   5   9  2   
  9   5  10  1   
 10   6  11  1   
 11   6  29  1   
 12   6  30  1   
 13   7  10  2   
 14   7  12  1   
 15   8  31  1   
 16   8  32  1   
 17   8  33  1   
 18  10  13  1   
 19  11  14  2   
 20  11  34  1   
 21  12  15  ar  
 22  12  35  1   
 23  13  15  ar  
 24  13  16  1   
 25  14  17  1   
 26  14  36  1   
 27  15  18  ar  
 28  16  19  1   
 29  16  37  1   
 30  16  38  1   
 31  17  39  1   
 32  17  40  1   
 33  17  41  1   
 34  18  19  1   
 35  18  20  1   
 36  19  42  1   
 37  19  43  1   
 38  20  21  ar  
 39  20  22  ar  
 40  21  23  1   
 41  21  24  ar  
 42  22  25  ar  
 43  22  44  1   
 44  23  26  1   
 45  24  27  ar  
 46  24  45  1   
 47  25  27  ar  
 48  25  28  1   
 49  26  46  1   
 50  26  47  1   
 51  26  48  1   
 52  27  49  1   
 53  28  50  1   
 54  28  51  1   
 55  28  52  1   
@<TRIPOS>SUBSTRUCTURE
  1 ****  12 GROUP 4 **** **** 0

# MOE 2024.06 (io_trps.svl 2023.06)
