@<TRIPOS>MOLECULE
5-Oxo-1-phenyl-pyrrolidine-3-carboxylic acid cyclopentylamide
40 42 1 0 0 
SMALL
USER_CHARGES


@<TRIPOS>ATOM
  1 O       -0.5490     1.8990    -2.3030 O.2   1 <1>  -0.5700 
  2 C       -0.4560     2.4930    -1.2580 C.2   1 <1>   0.5690 
  3 N       -1.2680     2.3840    -0.1660 N.am  1 <1>  -0.4770 
  4 C        0.6470     3.4870    -1.0240 C.3   1 <1>  -0.0990 
  5 C       -2.3830     1.5400     0.0220 C.ar  1 <1>   0.1170 
  6 C       -0.8080     3.2890     0.9090 C.3   1 <1>   0.1400 
  7 C        0.6170     3.6870     0.4990 C.3   1 <1>  -0.0190 
  8 C       -3.4690     1.9520     0.7920 C.ar  1 <1>  -0.1500 
  9 C       -2.4280     0.2690    -0.5440 C.ar  1 <1>  -0.1500 
 10 C        1.0100     5.0830     0.9570 C.2   1 <1>   0.5690 
 11 C       -4.5570     1.1220     0.9950 C.ar  1 <1>  -0.1500 
 12 C       -3.5150    -0.5640    -0.3460 C.ar  1 <1>  -0.1500 
 13 O        0.3670     5.6250     1.8220 O.2   1 <1>  -0.5700 
 14 N        2.0890     5.6740     0.3870 N.am  1 <1>  -0.7300 
 15 C       -4.5810    -0.1390     0.4260 C.ar  1 <1>  -0.1500 
 16 C        2.5940     7.0190     0.7080 C.3   1 <1>   0.2200 
 17 C        2.5860     7.8580    -0.5630 C.3   1 <1>  -0.1600 
 18 C        4.0740     6.9160     1.0500 C.3   1 <1>  -0.1600 
 19 C        3.8530     7.4650    -1.3310 C.3   1 <1>  -0.1600 
 20 C        4.8120     6.8650    -0.2930 C.3   1 <1>  -0.1600 
 21 H        0.4030     4.3930    -1.5470 H     1 <1>   0.0800 
 22 H        1.5900     3.1010    -1.3640 H     1 <1>   0.0800 
 23 H       -0.8170     2.7930     1.8640 H     1 <1>   0.0800 
 24 H       -1.4550     4.1490     0.9390 H     1 <1>   0.0800 
 25 H        1.2930     2.9870     0.9560 H     1 <1>   0.0800 
 26 H       -3.4730     2.9310     1.2340 H     1 <1>   0.1500 
 27 H       -1.6060    -0.0730    -1.1460 H     1 <1>   0.1500 
 28 H       -5.3860     1.4570     1.5930 H     1 <1>   0.1500 
 29 H       -3.5290    -1.5420    -0.7940 H     1 <1>   0.1500 
 30 H        2.6270     5.1970    -0.3350 H     1 <1>   0.3700 
 31 H       -5.4270    -0.7870     0.5810 H     1 <1>   0.1500 
 32 H        2.0180     7.4690     1.5010 H     1 <1>   0.0800 
 33 H        2.6560     8.8950    -0.2840 H     1 <1>   0.0800 
 34 H        1.6870     7.7190    -1.1390 H     1 <1>   0.0800 
 35 H        4.2900     6.0700     1.6790 H     1 <1>   0.0800 
 36 H        4.3630     7.8120     1.5720 H     1 <1>   0.0800 
 37 H        4.2870     8.3210    -1.8180 H     1 <1>   0.0800 
 38 H        3.6170     6.7260    -2.0770 H     1 <1>   0.0800 
 39 H        5.0360     5.8440    -0.5520 H     1 <1>   0.0800 
 40 H        5.7340     7.4190    -0.2440 H     1 <1>   0.0800 
@<TRIPOS>BOND
  1   1   2  2   
  2   2   3  am  
  3   2   4  1   
  4   3   5  1   
  5   3   6  1   
  6   4   7  1   
  7   4  21  1   
  8   4  22  1   
  9   5   8  ar  
 10   5   9  ar  
 11   6   7  1   
 12   6  23  1   
 13   6  24  1   
 14   7  10  1   
 15   7  25  1   
 16   8  11  ar  
 17   8  26  1   
 18   9  12  ar  
 19   9  27  1   
 20  10  13  2   
 21  10  14  am  
 22  11  15  ar  
 23  11  28  1   
 24  12  15  ar  
 25  12  29  1   
 26  14  16  1   
 27  14  30  1   
 28  15  31  1   
 29  16  17  1   
 30  16  18  1   
 31  16  32  1   
 32  17  19  1   
 33  17  33  1   
 34  17  34  1   
 35  18  20  1   
 36  18  35  1   
 37  18  36  1   
 38  19  20  1   
 39  19  37  1   
 40  19  38  1   
 41  20  39  1   
 42  20  40  1   
@<TRIPOS>SUBSTRUCTURE
  1 ****   7 GROUP 4 **** **** 0

# MOE 2024.06 (io_trps.svl 2023.06)
