@<TRIPOS>MOLECULE
1-(4-Chloro-benzenesulfonyl)-4-(2-pyridin-4-yl-ethyl)-piperazine
45 47 1 0 0 
SMALL
USER_CHARGES


@<TRIPOS>ATOM
  1 CL      -2.3360     1.1840    -4.3260 Cl    1 <1>  -0.1770 
  2 C       -3.2330     0.7360    -2.8990 C.ar  1 <1>   0.1770 
  3 C       -3.3720     1.6450    -1.8690 C.ar  1 <1>  -0.1500 
  4 C       -3.7940    -0.5230    -2.8160 C.ar  1 <1>  -0.1500 
  5 C       -4.0870     1.2850    -0.7390 C.ar  1 <1>  -0.1500 
  6 C       -4.5080    -0.8710    -1.6810 C.ar  1 <1>  -0.1500 
  7 C       -4.6700     0.0240    -0.6260 C.ar  1 <1>  -0.0090 
  8 S       -5.6320    -0.4380     0.8420 S.o2  1 <1>   1.4470 
  9 O       -5.6770     0.6450     1.7990 O.2   1 <1>  -0.6500 
 10 O       -5.2760    -1.7690     1.2730 O.2   1 <1>  -0.6500 
 11 N       -7.2240    -0.5570     0.2560 N.am  1 <1>  -0.8490 
 12 C       -7.7950     0.7600    -0.0860 C.3   1 <1>   0.1960 
 13 C       -8.0730    -1.2740     1.2250 C.3   1 <1>   0.1960 
 14 C       -9.2400     0.6360    -0.6160 C.3   1 <1>   0.3430 
 15 C       -9.5270    -1.4200     0.7270 C.3   1 <1>   0.3430 
 16 N      -10.1430    -0.0940     0.3470 N.4   1 <1>  -0.9590 
 17 C      -11.5130    -0.2440    -0.2390 C.3   1 <1>   0.3430 
 18 C      -12.5360    -0.7310     0.7910 C.3   1 <1>  -0.0170 
 19 C      -13.9070    -0.7570     0.1430 C.ar  1 <1>  -0.1430 
 20 C      -14.3690    -1.8640    -0.5410 C.ar  1 <1>  -0.1500 
 21 C      -14.7610     0.3280     0.1990 C.ar  1 <1>  -0.1500 
 22 C      -15.6230    -1.8290    -1.1300 C.ar  1 <1>   0.1600 
 23 C      -15.9960     0.2590    -0.4250 C.ar  1 <1>   0.1600 
 24 N      -16.4410    -0.7920    -1.0920 N.ar  1 <1>  -0.6200 
 25 H       -2.9210     2.6190    -1.9540 H     1 <1>   0.1500 
 26 H       -3.6680    -1.2180    -3.6280 H     1 <1>   0.1500 
 27 H       -4.1880     1.9930     0.0670 H     1 <1>   0.1500 
 28 H       -4.9410    -1.8560    -1.6100 H     1 <1>   0.1500 
 29 H       -7.1890     1.2260    -0.8450 H     1 <1>   0.0800 
 30 H       -7.7920     1.4060     0.7770 H     1 <1>   0.0800 
 31 H       -8.0640    -0.7610     2.1730 H     1 <1>   0.0800 
 32 H       -7.6760    -2.2620     1.3890 H     1 <1>   0.0800 
 33 H       -9.2090     0.1080    -1.5550 H     1 <1>   0.0800 
 34 H       -9.6300     1.6230    -0.8060 H     1 <1>   0.0800 
 35 H      -10.1120    -1.8920     1.4980 H     1 <1>   0.0800 
 36 H       -9.5220    -2.0750    -0.1300 H     1 <1>   0.0800 
 37 H      -10.2110     0.4780     1.2000 H     1 <1>   0.4500 
 38 H      -11.4870    -0.9340    -1.0670 H     1 <1>   0.0800 
 39 H      -11.8470     0.7090    -0.6180 H     1 <1>   0.0800 
 40 H      -12.5580    -0.0670     1.6380 H     1 <1>   0.0800 
 41 H      -12.2940    -1.7210     1.1330 H     1 <1>   0.0800 
 42 H      -13.7810    -2.7590    -0.6270 H     1 <1>   0.1500 
 43 H      -14.4910     1.2290     0.7190 H     1 <1>   0.1500 
 44 H      -15.9720    -2.7000    -1.6600 H     1 <1>   0.1500 
 45 H      -16.6530     1.1110    -0.3730 H     1 <1>   0.1500 
@<TRIPOS>BOND
  1   1   2  1   
  2   2   3  ar  
  3   2   4  ar  
  4   3   5  ar  
  5   3  25  1   
  6   4   6  ar  
  7   4  26  1   
  8   5   7  ar  
  9   5  27  1   
 10   6   7  ar  
 11   6  28  1   
 12   7   8  1   
 13   8   9  2   
 14   8  10  2   
 15   8  11  am  
 16  11  12  1   
 17  11  13  1   
 18  12  14  1   
 19  12  29  1   
 20  12  30  1   
 21  13  15  1   
 22  13  31  1   
 23  13  32  1   
 24  14  16  1   
 25  14  33  1   
 26  14  34  1   
 27  15  16  1   
 28  15  35  1   
 29  15  36  1   
 30  16  17  1   
 31  16  37  1   
 32  17  18  1   
 33  17  38  1   
 34  17  39  1   
 35  18  19  1   
 36  18  40  1   
 37  18  41  1   
 38  19  20  ar  
 39  19  21  ar  
 40  20  22  ar  
 41  20  42  1   
 42  21  23  ar  
 43  21  43  1   
 44  22  24  ar  
 45  22  44  1   
 46  23  24  ar  
 47  23  45  1   
@<TRIPOS>SUBSTRUCTURE
  1 ****  14 GROUP 4 **** **** 0

# MOE 2024.06 (io_trps.svl 2023.06)
