@<TRIPOS>MOLECULE
(3,4-Dihydro-2H-quinolin-1-yl)-(1-methanesulfonyl-2,3-dihydro-1H-indol-5-yl)-met
45 48 1 0 0 
SMALL
USER_CHARGES


@<TRIPOS>ATOM
  1 S        0.2200    -0.1060     0.4360 S.o2  1 <1>   1.3330 
  2 O        1.3200    -1.0380     0.4850 O.2   1 <1>  -0.6500 
  3 O       -0.9940    -0.4070    -0.2850 O.2   1 <1>  -0.6500 
  4 N        0.8080     1.3930    -0.1930 N.am  1 <1>  -0.6930 
  5 C       -0.2180     0.3580     2.0970 C.3   1 <1>  -0.1350 
  6 C        2.0390     1.9810    -0.0150 C.ar  1 <1>   0.1990 
  7 C       -0.0400     2.2120    -1.0850 C.3   1 <1>   0.1960 
  8 C        2.1170     3.1770    -0.6920 C.ar  1 <1>  -0.1440 
  9 C        3.1330     1.5400     0.7180 C.ar  1 <1>  -0.1500 
 10 C        0.8160     3.4490    -1.4150 C.3   1 <1>  -0.0160 
 11 C        3.2610     3.9480    -0.6600 C.ar  1 <1>  -0.1500 
 12 C        4.2810     2.3100     0.7540 C.ar  1 <1>  -0.1500 
 13 C        4.3810     3.5240     0.0610 C.ar  1 <1>   0.0860 
 14 C        5.5950     4.3150     0.0800 C.2   1 <1>   0.5440 
 15 O        5.5160     5.5290     0.1130 O.2   1 <1>  -0.5700 
 16 N        6.8430     3.7080     0.0350 N.am  1 <1>  -0.4770 
 17 C        8.0000     4.1810     0.7080 C.ar  1 <1>   0.1170 
 18 C        7.0200     2.5640    -0.9010 C.3   1 <1>   0.1400 
 19 C        9.2840     3.8230     0.2800 C.ar  1 <1>  -0.1430 
 20 C        7.8910     5.0020     1.8300 C.ar  1 <1>  -0.1500 
 21 C        8.2420     2.8060    -1.7830 C.3   1 <1>  -0.1600 
 22 C       10.4020     4.2860     0.9560 C.ar  1 <1>  -0.1500 
 23 C        9.5000     2.9110    -0.9200 C.3   1 <1>  -0.0170 
 24 C        9.0090     5.4620     2.5000 C.ar  1 <1>  -0.1500 
 25 C       10.2700     5.1040     2.0630 C.ar  1 <1>  -0.1500 
 26 H        0.6470     0.7110     2.6220 H     1 <1>   0.0800 
 27 H       -0.6190    -0.4880     2.6200 H     1 <1>   0.0800 
 28 H       -0.9570     1.1350     2.0810 H     1 <1>   0.0800 
 29 H       -0.9500     2.4890    -0.5820 H     1 <1>   0.0800 
 30 H       -0.2720     1.6530    -1.9760 H     1 <1>   0.0800 
 31 H        3.0860     0.6070     1.2480 H     1 <1>   0.1500 
 32 H        0.3500     4.3440    -1.0450 H     1 <1>   0.0800 
 33 H        0.9710     3.5320    -2.4750 H     1 <1>   0.0800 
 34 H        3.3040     4.8850    -1.1910 H     1 <1>   0.1500 
 35 H        5.1240     1.9700     1.3320 H     1 <1>   0.1500 
 36 H        6.1530     2.4540    -1.5290 H     1 <1>   0.0800 
 37 H        7.1480     1.6590    -0.3310 H     1 <1>   0.0800 
 38 H        6.9210     5.2930     2.1870 H     1 <1>   0.1500 
 39 H        8.1000     3.7210    -2.3330 H     1 <1>   0.0800 
 40 H        8.3520     2.0030    -2.4890 H     1 <1>   0.0800 
 41 H       11.3880     4.0100     0.6240 H     1 <1>   0.1500 
 42 H        9.7660     1.9340    -0.5580 H     1 <1>   0.0800 
 43 H       10.3140     3.2800    -1.5190 H     1 <1>   0.0800 
 44 H        8.8960     6.0990     3.3600 H     1 <1>   0.1500 
 45 H       11.1430     5.4600     2.5800 H     1 <1>   0.1500 
@<TRIPOS>BOND
  1   1   2  2   
  2   1   3  2   
  3   1   4  am  
  4   1   5  1   
  5   4   6  1   
  6   4   7  1   
  7   5  26  1   
  8   5  27  1   
  9   5  28  1   
 10   6   8  ar  
 11   6   9  ar  
 12   7  10  1   
 13   7  29  1   
 14   7  30  1   
 15   8  10  1   
 16   8  11  ar  
 17   9  12  ar  
 18   9  31  1   
 19  10  32  1   
 20  10  33  1   
 21  11  13  ar  
 22  11  34  1   
 23  12  13  ar  
 24  12  35  1   
 25  13  14  1   
 26  14  15  2   
 27  14  16  am  
 28  16  17  1   
 29  16  18  1   
 30  17  19  ar  
 31  17  20  ar  
 32  18  21  1   
 33  18  36  1   
 34  18  37  1   
 35  19  22  ar  
 36  19  23  1   
 37  20  24  ar  
 38  20  38  1   
 39  21  23  1   
 40  21  39  1   
 41  21  40  1   
 42  22  25  ar  
 43  22  41  1   
 44  23  42  1   
 45  23  43  1   
 46  24  25  ar  
 47  24  44  1   
 48  25  45  1   
@<TRIPOS>SUBSTRUCTURE
  1 ****  13 GROUP 4 **** **** 0

# MOE 2024.06 (io_trps.svl 2023.06)
