@<TRIPOS>MOLECULE
2-(5-Bromo-2-methoxy-phenyl)-5,7-dimethyl-1,3-diaza-tricyclo[3.3.1.1*3,7*]decan-
46 49 1 0 0 
SMALL
USER_CHARGES


@<TRIPOS>ATOM
  1 BR      -0.9660     0.3010    -1.7930 Br    1 <1>  -0.1110 
  2 C        0.2080     1.6450    -1.0720 C.ar  1 <1>   0.1110 
  3 C       -0.0900     2.9740    -1.2950 C.ar  1 <1>  -0.1500 
  4 C        1.3140     1.2470    -0.3540 C.ar  1 <1>  -0.1500 
  5 C        0.7340     3.9650    -0.7670 C.ar  1 <1>  -0.1440 
  6 C        2.1570     2.2210     0.1460 C.ar  1 <1>  -0.1500 
  7 C        1.8850     3.5740    -0.0680 C.ar  1 <1>   0.0830 
  8 C        0.4270     5.4530    -0.9940 C.3   1 <1>   0.8360 
  9 O        2.7320     4.5470     0.3730 O.3   1 <1>  -0.3630 
 10 N        0.6240     6.2550     0.2290 N.4   1 <1>  -0.9590 
 11 N       -0.9440     5.7490    -1.4480 N.3   1 <1>  -0.8100 
 12 C        4.0340     4.2370     0.8360 C.3   1 <1>   0.0400 
 13 C        0.5910     7.7090    -0.1030 C.3   1 <1>   0.3430 
 14 C       -0.3630     5.9020     1.2930 C.3   1 <1>   0.3430 
 15 C       -1.0580     7.1620    -1.8630 C.3   1 <1>   0.1100 
 16 C       -2.0000     5.4200    -0.4590 C.3   1 <1>   0.1100 
 17 C       -0.7990     8.0760    -0.6470 C.3   1 <1>   0.0000 
 18 C       -1.7820     6.2450     0.8180 C.3   1 <1>   0.0000 
 19 C       -1.8220     7.7550     0.4730 C.3   1 <1>   0.2000 
 20 C       -0.8270     9.5610    -1.0590 C.3   1 <1>  -0.2400 
 21 C       -2.8080     5.8620     1.9030 C.3   1 <1>  -0.2400 
 22 O       -3.1010     8.1350     0.0870 O.3   1 <1>  -0.6800 
 23 H       -0.9590     3.2080    -1.8860 H     1 <1>   0.1500 
 24 H        1.5110     0.2000    -0.1970 H     1 <1>   0.1500 
 25 H        3.0210     1.8980     0.6970 H     1 <1>   0.1500 
 26 H        1.1110     5.7970    -1.7540 H     1 <1>   0.0800 
 27 H        1.5620     5.9630     0.5420 H     1 <1>   0.4500 
 28 H        4.5600     5.1580     1.0160 H     1 <1>   0.0800 
 29 H        4.5510     3.6690     0.0820 H     1 <1>   0.0800 
 30 H        3.9610     3.6780     1.7520 H     1 <1>   0.0800 
 31 H        1.3390     7.9330    -0.8470 H     1 <1>   0.0800 
 32 H        0.8030     8.2940     0.7770 H     1 <1>   0.0800 
 33 H       -0.3030     4.8470     1.5100 H     1 <1>   0.0800 
 34 H       -0.1430     6.4460     2.1960 H     1 <1>   0.0800 
 35 H       -0.3460     7.3670    -2.6460 H     1 <1>   0.0800 
 36 H       -2.0400     7.3430    -2.2690 H     1 <1>   0.0800 
 37 H       -1.9810     4.3710    -0.2200 H     1 <1>   0.0800 
 38 H       -2.9690     5.6290    -0.8820 H     1 <1>   0.0800 
 39 H       -1.5900     8.3330     1.3530 H     1 <1>   0.0800 
 40 H       -0.0720     9.7720    -1.7960 H     1 <1>   0.0800 
 41 H       -0.6600    10.1960    -0.2060 H     1 <1>   0.0800 
 42 H       -1.7840     9.8200    -1.4790 H     1 <1>   0.0800 
 43 H       -2.7280     4.8200     2.1590 H     1 <1>   0.0800 
 44 H       -3.8110     6.0450     1.5580 H     1 <1>   0.0800 
 45 H       -2.6540     6.4460     2.7940 H     1 <1>   0.0800 
 46 H       -3.3980     7.6400    -0.7000 H     1 <1>   0.4000 
@<TRIPOS>BOND
  1   1   2  1   
  2   2   3  ar  
  3   2   4  ar  
  4   3   5  ar  
  5   3  23  1   
  6   4   6  ar  
  7   4  24  1   
  8   5   7  ar  
  9   5   8  1   
 10   6   7  ar  
 11   6  25  1   
 12   7   9  1   
 13   8  10  1   
 14   8  11  1   
 15   8  26  1   
 16   9  12  1   
 17  10  13  1   
 18  10  14  1   
 19  10  27  1   
 20  11  15  1   
 21  11  16  1   
 22  12  28  1   
 23  12  29  1   
 24  12  30  1   
 25  13  17  1   
 26  13  31  1   
 27  13  32  1   
 28  14  18  1   
 29  14  33  1   
 30  14  34  1   
 31  15  17  1   
 32  15  35  1   
 33  15  36  1   
 34  16  18  1   
 35  16  37  1   
 36  16  38  1   
 37  17  19  1   
 38  17  20  1   
 39  18  19  1   
 40  18  21  1   
 41  19  22  1   
 42  19  39  1   
 43  20  40  1   
 44  20  41  1   
 45  20  42  1   
 46  21  43  1   
 47  21  44  1   
 48  21  45  1   
 49  22  46  1   
@<TRIPOS>SUBSTRUCTURE
  1 ****   8 GROUP 4 **** **** 0

# MOE 2024.06 (io_trps.svl 2023.06)
