@<TRIPOS>MOLECULE
4-(4-Benzo[1,3]dioxol-5-ylmethyl-piperazin-1-ylmethyl)-6-ethoxy-chromen-2-one
58 62 1 0 0 
SMALL
USER_CHARGES


@<TRIPOS>ATOM
  1 O        3.4590     2.7420    -2.4370 O.2   1 <1>  -0.5700 
  2 C        4.0350     2.0210    -1.6510 C.2   1 <1>   0.7060 
  3 O        3.9120     0.7000    -1.7830 O.3   1 <1>  -0.2320 
  4 C        4.8550     2.5160    -0.5940 C.2   1 <1>  -0.1360 
  5 C        4.5160    -0.1780    -0.9490 C.ar  1 <1>   0.0830 
  6 C        5.4880     1.6930     0.2720 C.2   1 <1>  -0.1670 
  7 C        5.3090     0.2720     0.1180 C.ar  1 <1>   0.0280 
  8 C        4.3290    -1.5320    -1.1850 C.ar  1 <1>  -0.1500 
  9 C        6.3780     2.2750     1.3630 C.3   1 <1>   0.2480 
 10 C        5.8780    -0.7000     0.9450 C.ar  1 <1>  -0.1500 
 11 C        4.9210    -2.4700    -0.3650 C.ar  1 <1>  -0.1500 
 12 N        7.7280     2.5410     0.8280 N.3   1 <1>  -0.8100 
 13 C        5.7020    -2.0490     0.7100 C.ar  1 <1>   0.0830 
 14 C        8.5430     3.3420     1.7730 C.3   1 <1>   0.1100 
 15 C        8.4580     1.3080     0.4260 C.3   1 <1>   0.1100 
 16 O        6.3270    -2.8960     1.5660 O.3   1 <1>  -0.3630 
 17 C        9.9360     3.6950     1.1940 C.3   1 <1>   0.3430 
 18 C        9.8760     1.6040    -0.1200 C.3   1 <1>   0.3430 
 19 C        6.1390    -4.2900     1.4810 C.3   1 <1>   0.1200 
 20 N       10.1310     3.0770    -0.1600 N.4   1 <1>  -0.9590 
 21 C        6.9270    -4.9420     2.6130 C.3   1 <1>  -0.2400 
 22 C       11.3950     3.4640    -0.8340 C.3   1 <1>   0.4860 
 23 C       11.4210     4.9740    -0.9730 C.ar  1 <1>  -0.1430 
 24 C       10.5430     5.6030    -1.8530 C.ar  1 <1>  -0.1500 
 25 C       12.3120     5.7340    -0.2120 C.ar  1 <1>  -0.1500 
 26 C       10.5770     6.9790    -1.9320 C.ar  1 <1>   0.0830 
 27 C       12.3310     7.1200    -0.3110 C.ar  1 <1>  -0.1500 
 28 O        9.8270     7.7800    -2.6940 O.3   1 <1>  -0.3630 
 29 C       11.4440     7.7180    -1.1830 C.ar  1 <1>   0.0830 
 30 C       10.2520     9.1160    -2.4240 C.3   1 <1>   0.4000 
 31 O       11.2790     9.0190    -1.4380 O.3   1 <1>  -0.3620 
 32 H        4.9390     3.5850    -0.5460 H     1 <1>   0.1500 
 33 H        3.7190    -1.8410    -2.0150 H     1 <1>   0.1500 
 34 H        6.4240     1.6360     2.2280 H     1 <1>   0.0800 
 35 H        5.9450     3.2080     1.6830 H     1 <1>   0.0800 
 36 H        6.4720    -0.4280     1.7930 H     1 <1>   0.1500 
 37 H        4.7660    -3.5130    -0.5720 H     1 <1>   0.1500 
 38 H        8.6710     2.8010     2.6960 H     1 <1>   0.0800 
 39 H        8.0270     4.2590     2.0050 H     1 <1>   0.0800 
 40 H        7.9090     0.7980    -0.3460 H     1 <1>   0.0800 
 41 H        8.5380     0.6360     1.2640 H     1 <1>   0.0800 
 42 H       10.7010     3.3550     1.8730 H     1 <1>   0.0800 
 43 H       10.0170     4.7680     1.1220 H     1 <1>   0.0800 
 44 H        9.9610     1.1850    -1.1090 H     1 <1>   0.0800 
 45 H       10.6050     1.1180     0.5070 H     1 <1>   0.0800 
 46 H        6.4990    -4.6260     0.5250 H     1 <1>   0.0800 
 47 H        5.0870    -4.4990     1.5810 H     1 <1>   0.0800 
 48 H        9.3410     3.4580    -0.7030 H     1 <1>   0.4500 
 49 H        7.9730    -4.7160     2.5140 H     1 <1>   0.0800 
 50 H        6.8010    -6.0090     2.5750 H     1 <1>   0.0800 
 51 H        6.5700    -4.5880     3.5640 H     1 <1>   0.0800 
 52 H       11.4470     3.0150    -1.8120 H     1 <1>   0.0800 
 53 H       12.2430     3.1320    -0.2570 H     1 <1>   0.0800 
 54 H        9.8470     5.0630    -2.4700 H     1 <1>   0.1500 
 55 H       13.0040     5.2600     0.4640 H     1 <1>   0.1500 
 56 H       13.0100     7.7240     0.2650 H     1 <1>   0.1500 
 57 H        9.4280     9.6870    -2.0340 H     1 <1>   0.0800 
 58 H       10.6530     9.5560    -3.3200 H     1 <1>   0.0800 
@<TRIPOS>BOND
  1   1   2  2   
  2   2   3  1   
  3   2   4  1   
  4   3   5  1   
  5   4   6  2   
  6   4  32  1   
  7   5   7  ar  
  8   5   8  ar  
  9   6   7  1   
 10   6   9  1   
 11   7  10  ar  
 12   8  11  ar  
 13   8  33  1   
 14   9  12  1   
 15   9  34  1   
 16   9  35  1   
 17  10  13  ar  
 18  10  36  1   
 19  11  13  ar  
 20  11  37  1   
 21  12  14  1   
 22  12  15  1   
 23  13  16  1   
 24  14  17  1   
 25  14  38  1   
 26  14  39  1   
 27  15  18  1   
 28  15  40  1   
 29  15  41  1   
 30  16  19  1   
 31  17  20  1   
 32  17  42  1   
 33  17  43  1   
 34  18  20  1   
 35  18  44  1   
 36  18  45  1   
 37  19  21  1   
 38  19  46  1   
 39  19  47  1   
 40  20  22  1   
 41  20  48  1   
 42  21  49  1   
 43  21  50  1   
 44  21  51  1   
 45  22  23  1   
 46  22  52  1   
 47  22  53  1   
 48  23  24  ar  
 49  23  25  ar  
 50  24  26  ar  
 51  24  54  1   
 52  25  27  ar  
 53  25  55  1   
 54  26  28  1   
 55  26  29  ar  
 56  27  29  ar  
 57  27  56  1   
 58  28  30  1   
 59  29  31  1   
 60  30  31  1   
 61  30  57  1   
 62  30  58  1   
@<TRIPOS>SUBSTRUCTURE
  1 ****  12 GROUP 4 **** **** 0

# MOE 2024.06 (io_trps.svl 2023.06)
