@<TRIPOS>MOLECULE
2-(2-Methyl-4-propylsulfamoyl-phenoxy)-N-pyridin-2-ylmethyl-acetamide
49 50 1 0 0 
SMALL
USER_CHARGES


@<TRIPOS>ATOM
  1 S       -0.2100     1.6840     1.0320 S.o2  1 <1>   1.4470 
  2 O       -0.7670     1.3510     2.3220 O.2   1 <1>  -0.6500 
  3 O       -0.8140     2.7140     0.2180 O.2   1 <1>  -0.6500 
  4 N       -0.3120     0.2460     0.1750 N.am  1 <1>  -0.9140 
  5 C        1.5740     1.9630     1.1660 C.ar  1 <1>  -0.0090 
  6 C       -1.5900     0.0780    -0.4880 C.3   1 <1>   0.1960 
  7 C        2.3760     1.9870     0.0320 C.ar  1 <1>  -0.1500 
  8 C        2.1830     2.1640     2.3990 C.ar  1 <1>  -0.1500 
  9 C       -1.6370    -1.3170    -1.1110 C.3   1 <1>  -0.1600 
 10 C        3.7420     2.2010     0.1110 C.ar  1 <1>  -0.1430 
 11 C        3.5460     2.3800     2.5000 C.ar  1 <1>  -0.1500 
 12 C       -2.9630    -1.5580    -1.8420 C.3   1 <1>  -0.2400 
 13 C        4.3330     2.4010     1.3530 C.ar  1 <1>   0.0820 
 14 C        4.5810     2.2180    -1.1610 C.3   1 <1>  -0.0970 
 15 O        5.6710     2.6110     1.3810 O.3   1 <1>  -0.3630 
 16 C        6.3770     2.8510     2.5900 C.3   1 <1>   0.1810 
 17 C        7.8540     3.0990     2.3130 C.2   1 <1>   0.5690 
 18 O        8.6250     3.1380     3.2420 O.2   1 <1>  -0.5700 
 19 N        8.2700     3.2700     1.0350 N.am  1 <1>  -0.7300 
 20 C        9.6690     3.4130     0.5820 C.3   1 <1>   0.2840 
 21 C        9.9400     2.4460    -0.5640 C.ar  1 <1>   0.1670 
 22 N        9.3360     2.7020    -1.7200 N.ar  1 <1>  -0.6200 
 23 C       10.7800     1.3610    -0.3550 C.ar  1 <1>  -0.1500 
 24 C        9.5860     1.8480    -2.6990 C.ar  1 <1>   0.1600 
 25 C       11.0290     0.4800    -1.3860 C.ar  1 <1>  -0.1500 
 26 C       10.4100     0.7410    -2.5880 C.ar  1 <1>  -0.1500 
 27 H       -0.2650    -0.4630     0.9040 H     1 <1>   0.4200 
 28 H       -1.7000     0.8250    -1.2590 H     1 <1>   0.0800 
 29 H       -2.3940     0.1950     0.2220 H     1 <1>   0.0800 
 30 H        1.9120     1.8340    -0.9280 H     1 <1>   0.1500 
 31 H        1.5820     2.1510     3.2930 H     1 <1>   0.1500 
 32 H       -1.5220    -2.0600    -0.3410 H     1 <1>   0.0800 
 33 H       -0.8260    -1.4180    -1.8110 H     1 <1>   0.0800 
 34 H        3.9690     2.5290     3.4750 H     1 <1>   0.1500 
 35 H       -3.7910    -1.4780    -1.1600 H     1 <1>   0.0800 
 36 H       -2.9700    -2.5430    -2.2740 H     1 <1>   0.0800 
 37 H       -3.0930    -0.8380    -2.6320 H     1 <1>   0.0800 
 38 H        3.9780     2.0200    -2.0290 H     1 <1>   0.0800 
 39 H        5.3500     1.4690    -1.1020 H     1 <1>   0.0800 
 40 H        5.0460     3.1800    -1.2790 H     1 <1>   0.0800 
 41 H        6.2720     1.9900     3.2230 H     1 <1>   0.0800 
 42 H        5.9560     3.7170     3.0660 H     1 <1>   0.0800 
 43 H        7.5950     3.1490     0.2720 H     1 <1>   0.3700 
 44 H       10.3420     3.2250     1.4010 H     1 <1>   0.0800 
 45 H        9.8270     4.4200     0.2380 H     1 <1>   0.0800 
 46 H       11.2320     1.2030     0.6080 H     1 <1>   0.1500 
 47 H        9.1080     2.0400    -3.6450 H     1 <1>   0.1500 
 48 H       11.6760    -0.3710    -1.2560 H     1 <1>   0.1500 
 49 H       10.5620     0.0940    -3.4330 H     1 <1>   0.1500 
@<TRIPOS>BOND
  1   1   2  2   
  2   1   3  2   
  3   1   4  am  
  4   1   5  1   
  5   4   6  1   
  6   4  27  1   
  7   5   7  ar  
  8   5   8  ar  
  9   6   9  1   
 10   6  28  1   
 11   6  29  1   
 12   7  10  ar  
 13   7  30  1   
 14   8  11  ar  
 15   8  31  1   
 16   9  12  1   
 17   9  32  1   
 18   9  33  1   
 19  10  13  ar  
 20  10  14  1   
 21  11  13  ar  
 22  11  34  1   
 23  12  35  1   
 24  12  36  1   
 25  12  37  1   
 26  13  15  1   
 27  14  38  1   
 28  14  39  1   
 29  14  40  1   
 30  15  16  1   
 31  16  17  1   
 32  16  41  1   
 33  16  42  1   
 34  17  18  2   
 35  17  19  am  
 36  19  20  1   
 37  19  43  1   
 38  20  21  1   
 39  20  44  1   
 40  20  45  1   
 41  21  22  ar  
 42  21  23  ar  
 43  22  24  ar  
 44  23  25  ar  
 45  23  46  1   
 46  24  26  ar  
 47  24  47  1   
 48  25  26  ar  
 49  25  48  1   
 50  26  49  1   
@<TRIPOS>SUBSTRUCTURE
  1 ****  10 GROUP 4 **** **** 0

# MOE 2024.06 (io_trps.svl 2023.06)
