@<TRIPOS>MOLECULE
N-Isopropyl-2-(2-methoxy-phenoxy)-N-(3-m-tolyl-[1,2,4]oxadiazol-5-ylmethyl)-acet
54 56 1 0 0 
SMALL
USER_CHARGES


@<TRIPOS>ATOM
  1 O        0.3670     2.1510     1.7070 O.2   1 <1>  -0.5700 
  2 C        0.4320     2.8850     0.7460 C.2   1 <1>   0.5690 
  3 N        1.3840     2.6840    -0.2290 N.am  1 <1>  -0.6600 
  4 C       -0.5570     4.0520     0.7100 C.3   1 <1>   0.1810 
  5 C        1.5110     3.5360    -1.4480 C.3   1 <1>   0.2200 
  6 C        2.2840     1.4860    -0.1110 C.3   1 <1>   0.3200 
  7 O       -1.3470     4.0830    -0.4730 O.3   1 <1>  -0.3630 
  8 C        0.9350     2.8020    -2.6580 C.3   1 <1>  -0.2400 
  9 C        2.9600     3.9610    -1.6910 C.3   1 <1>  -0.2400 
 10 C        3.6010     1.8040     0.5840 C.2   1 <1>   0.2980 
 11 C       -2.5900     3.5500    -0.3860 C.ar  1 <1>   0.0820 
 12 O        3.5750     2.3540     1.7700 O.3   1 <1>  -0.0190 
 13 N        4.7620     1.5830     0.1140 N.2   1 <1>  -0.5650 
 14 C       -2.8100     2.1730    -0.4600 C.ar  1 <1>   0.0820 
 15 C       -3.6570     4.4180    -0.2240 C.ar  1 <1>  -0.1500 
 16 N        4.8250     2.5050     2.0770 N.2   1 <1>  -0.4100 
 17 C        5.5310     2.0510     1.1030 C.2   1 <1>   0.4620 
 18 O       -1.7600     1.3330    -0.6450 O.3   1 <1>  -0.3630 
 19 C       -4.1070     1.6850    -0.3580 C.ar  1 <1>  -0.1500 
 20 C       -4.9460     3.9220    -0.1190 C.ar  1 <1>  -0.1500 
 21 C        6.9840     2.0360     1.0430 C.ar  1 <1>   0.0540 
 22 C       -1.6720     0.1840     0.1680 C.3   1 <1>   0.0400 
 23 C       -5.1700     2.5570    -0.1840 C.ar  1 <1>  -0.1500 
 24 C        7.6710     1.5250    -0.0610 C.ar  1 <1>  -0.1500 
 25 C        7.7550     2.5350     2.0940 C.ar  1 <1>  -0.1500 
 26 C        9.0540     1.5110    -0.1220 C.ar  1 <1>  -0.1440 
 27 C        9.1370     2.5260     2.0460 C.ar  1 <1>  -0.1500 
 28 C        9.7870     2.0130     0.9390 C.ar  1 <1>  -0.1500 
 29 C        9.7700     0.9480    -1.3360 C.3   1 <1>  -0.0970 
 30 H       -0.0120     4.9750     0.7580 H     1 <1>   0.0800 
 31 H       -1.2130     3.9980     1.5610 H     1 <1>   0.0800 
 32 H        0.9440     4.4390    -1.3140 H     1 <1>   0.0800 
 33 H        2.4950     1.0910    -1.0870 H     1 <1>   0.0800 
 34 H        1.7900     0.7080     0.4410 H     1 <1>   0.0800 
 35 H        1.5120     1.9310    -2.9060 H     1 <1>   0.0800 
 36 H        0.9330     3.4570    -3.5100 H     1 <1>   0.0800 
 37 H       -0.0820     2.5120    -2.4610 H     1 <1>   0.0800 
 38 H        3.5720     3.1270    -1.9800 H     1 <1>   0.0800 
 39 H        3.3670     4.4170    -0.8060 H     1 <1>   0.0800 
 40 H        2.9930     4.6840    -2.4850 H     1 <1>   0.0800 
 41 H       -3.4770     5.4760    -0.1820 H     1 <1>   0.1500 
 42 H       -4.2980     0.6310    -0.4240 H     1 <1>   0.1500 
 43 H       -5.7730     4.5980     0.0100 H     1 <1>   0.1500 
 44 H       -0.6820    -0.2210     0.0660 H     1 <1>   0.0800 
 45 H       -2.3980    -0.5380    -0.1570 H     1 <1>   0.0800 
 46 H       -1.8420     0.4680     1.1920 H     1 <1>   0.0800 
 47 H       -6.1720     2.1730    -0.1040 H     1 <1>   0.1500 
 48 H        7.1050     1.1310    -0.8860 H     1 <1>   0.1500 
 49 H        7.2650     2.9370     2.9640 H     1 <1>   0.1500 
 50 H        9.7070     2.9170     2.8700 H     1 <1>   0.1500 
 51 H       10.8630     2.0070     0.9060 H     1 <1>   0.1500 
 52 H        9.1000     0.8680    -2.1730 H     1 <1>   0.0800 
 53 H       10.1570    -0.0300    -1.1090 H     1 <1>   0.0800 
 54 H       10.5870     1.5890    -1.6150 H     1 <1>   0.0800 
@<TRIPOS>BOND
  1   1   2  2   
  2   2   3  am  
  3   2   4  1   
  4   3   5  1   
  5   3   6  1   
  6   4   7  1   
  7   4  30  1   
  8   4  31  1   
  9   5   8  1   
 10   5   9  1   
 11   5  32  1   
 12   6  10  1   
 13   6  33  1   
 14   6  34  1   
 15   7  11  1   
 16   8  35  1   
 17   8  36  1   
 18   8  37  1   
 19   9  38  1   
 20   9  39  1   
 21   9  40  1   
 22  10  12  1   
 23  10  13  2   
 24  11  14  ar  
 25  11  15  ar  
 26  12  16  1   
 27  13  17  1   
 28  14  18  1   
 29  14  19  ar  
 30  15  20  ar  
 31  15  41  1   
 32  16  17  2   
 33  17  21  1   
 34  18  22  1   
 35  19  23  ar  
 36  19  42  1   
 37  20  23  ar  
 38  20  43  1   
 39  21  24  ar  
 40  21  25  ar  
 41  22  44  1   
 42  22  45  1   
 43  22  46  1   
 44  23  47  1   
 45  24  26  ar  
 46  24  48  1   
 47  25  27  ar  
 48  25  49  1   
 49  26  28  ar  
 50  26  29  1   
 51  27  28  ar  
 52  27  50  1   
 53  28  51  1   
 54  29  52  1   
 55  29  53  1   
 56  29  54  1   
@<TRIPOS>SUBSTRUCTURE
  1 ****   3 GROUP 4 **** **** 0

# MOE 2024.06 (io_trps.svl 2023.06)
