@<TRIPOS>MOLECULE
Morpholine-4-carboxylic acid isopropyl-(3-p-tolyl-[1,2,4]oxadiazol-5-ylmethyl)-a
49 51 1 0 0 
SMALL
USER_CHARGES


@<TRIPOS>ATOM
  1 O        0.3260     0.3830     0.1990 O.2   1 <1>  -0.5700 
  2 C        0.6690     1.5460     0.3130 C.2   1 <1>   0.6900 
  3 N        0.0150     2.5250    -0.3830 N.am  1 <1>  -0.6600 
  4 N        1.7160     1.8570     1.1300 N.am  1 <1>  -0.6600 
  5 C       -1.3100     2.2640    -1.0090 C.3   1 <1>   0.1400 
  6 C        0.7300     3.6810    -0.9930 C.3   1 <1>   0.1400 
  7 C        1.5620     2.8820     2.1920 C.3   1 <1>   0.2200 
  8 C        2.9080     0.9570     1.1280 C.3   1 <1>   0.3200 
  9 C       -2.1290     3.5630    -1.0950 C.3   1 <1>   0.1200 
 10 C       -0.1980     4.9040    -1.0710 C.3   1 <1>   0.1200 
 11 C        2.8120     3.7560     2.3120 C.3   1 <1>  -0.2400 
 12 C        1.2320     2.2000     3.5190 C.3   1 <1>  -0.2400 
 13 C        4.0060     1.5170     0.2350 C.2   1 <1>   0.2980 
 14 O       -1.3940     4.5780    -1.7220 O.3   1 <1>  -0.5600 
 15 O        3.7290     1.7460    -1.0220 O.3   1 <1>  -0.0190 
 16 N        5.1900     1.8070     0.5930 N.2   1 <1>  -0.5650 
 17 N        4.8280     2.2340    -1.5040 N.2   1 <1>  -0.4100 
 18 C        5.6960     2.2710    -0.5550 C.2   1 <1>   0.4620 
 19 C        7.0610     2.7560    -0.6730 C.ar  1 <1>   0.0540 
 20 C        7.5520     3.2480    -1.8840 C.ar  1 <1>  -0.1500 
 21 C        7.9390     2.7560     0.4120 C.ar  1 <1>  -0.1500 
 22 C        8.8480     3.7150    -2.0050 C.ar  1 <1>  -0.1500 
 23 C        9.2360     3.2220     0.2960 C.ar  1 <1>  -0.1500 
 24 C        9.6990     3.7070    -0.9140 C.ar  1 <1>  -0.1440 
 25 C       11.1220     4.2180    -1.0440 C.3   1 <1>  -0.0970 
 26 H       -1.8500     1.5350    -0.4300 H     1 <1>   0.0800 
 27 H       -1.1630     1.8640    -1.9970 H     1 <1>   0.0800 
 28 H        1.0460     3.4140    -1.9860 H     1 <1>   0.0800 
 29 H        1.6090     3.9290    -0.4270 H     1 <1>   0.0800 
 30 H        0.7310     3.5180     1.9340 H     1 <1>   0.0800 
 31 H        2.6390    -0.0180     0.7640 H     1 <1>   0.0800 
 32 H        3.2870     0.8400     2.1260 H     1 <1>   0.0800 
 33 H       -2.4080     3.8980    -0.1110 H     1 <1>   0.0800 
 34 H       -3.0220     3.4000    -1.6710 H     1 <1>   0.0800 
 35 H        0.2750     5.6930    -1.6290 H     1 <1>   0.0800 
 36 H       -0.4300     5.2670    -0.0850 H     1 <1>   0.0800 
 37 H        3.0650     4.1830     1.3590 H     1 <1>   0.0800 
 38 H        3.6500     3.1930     2.6810 H     1 <1>   0.0800 
 39 H        2.6250     4.5600     3.0000 H     1 <1>   0.0800 
 40 H        2.0520     1.6010     3.8680 H     1 <1>   0.0800 
 41 H        0.3610     1.5790     3.4050 H     1 <1>   0.0800 
 42 H        1.0190     2.9440     4.2660 H     1 <1>   0.0800 
 43 H        6.9080     3.2650    -2.7460 H     1 <1>   0.1500 
 44 H        7.6020     2.3830     1.3630 H     1 <1>   0.1500 
 45 H        9.1910     4.0860    -2.9550 H     1 <1>   0.1500 
 46 H        9.8850     3.2050     1.1540 H     1 <1>   0.1500 
 47 H       11.1810     4.9810    -1.7990 H     1 <1>   0.0800 
 48 H       11.7750     3.4080    -1.3170 H     1 <1>   0.0800 
 49 H       11.4580     4.6370    -0.1130 H     1 <1>   0.0800 
@<TRIPOS>BOND
  1   1   2  2   
  2   2   3  am  
  3   2   4  am  
  4   3   5  1   
  5   3   6  1   
  6   4   7  1   
  7   4   8  1   
  8   5   9  1   
  9   5  26  1   
 10   5  27  1   
 11   6  10  1   
 12   6  28  1   
 13   6  29  1   
 14   7  11  1   
 15   7  12  1   
 16   7  30  1   
 17   8  13  1   
 18   8  31  1   
 19   8  32  1   
 20   9  14  1   
 21   9  33  1   
 22   9  34  1   
 23  10  14  1   
 24  10  35  1   
 25  10  36  1   
 26  11  37  1   
 27  11  38  1   
 28  11  39  1   
 29  12  40  1   
 30  12  41  1   
 31  12  42  1   
 32  13  15  1   
 33  13  16  2   
 34  15  17  1   
 35  16  18  1   
 36  17  18  2   
 37  18  19  1   
 38  19  20  ar  
 39  19  21  ar  
 40  20  22  ar  
 41  20  43  1   
 42  21  23  ar  
 43  21  44  1   
 44  22  24  ar  
 45  22  45  1   
 46  23  24  ar  
 47  23  46  1   
 48  24  25  1   
 49  25  47  1   
 50  25  48  1   
 51  25  49  1   
@<TRIPOS>SUBSTRUCTURE
  1 ****  13 GROUP 4 **** **** 0

# MOE 2024.06 (io_trps.svl 2023.06)
