@<TRIPOS>MOLECULE
1-(5-Oxo-1-p-tolyl-pyrrolidine-3-carbonyl)-piperidine-4-carboxylic acid (2-metho
57 59 1 0 0 
SMALL
USER_CHARGES


@<TRIPOS>ATOM
  1 O        0.8470     0.2320     0.1690 O.2   1 <1>  -0.5700 
  2 C        1.6480    -0.6460    -0.0380 C.2   1 <1>   0.5690 
  3 N        1.4310    -1.9930     0.0090 N.am  1 <1>  -0.4770 
  4 C        3.0700    -0.3310    -0.4050 C.3   1 <1>  -0.0990 
  5 C        0.2630    -2.6700     0.4120 C.ar  1 <1>   0.1170 
  6 C        2.6880    -2.7230    -0.2680 C.3   1 <1>   0.1400 
  7 C        3.6030    -1.6750    -0.9230 C.3   1 <1>  -0.0190 
  8 C       -0.1420    -3.8430    -0.2190 C.ar  1 <1>  -0.1500 
  9 C       -0.5170    -2.1890     1.4580 C.ar  1 <1>  -0.1500 
 10 C        5.0920    -1.8760    -0.6570 C.2   1 <1>   0.5690 
 11 C       -1.2790    -4.5170     0.1900 C.ar  1 <1>  -0.1500 
 12 C       -1.6550    -2.8600     1.8670 C.ar  1 <1>  -0.1500 
 13 O        5.4090    -2.6340     0.2290 O.2   1 <1>  -0.5700 
 14 N        6.0410    -1.2010    -1.3890 N.am  1 <1>  -0.6600 
 15 C       -2.0420    -4.0310     1.2380 C.ar  1 <1>  -0.1430 
 16 C        5.7770    -0.2030    -2.4630 C.3   1 <1>   0.1400 
 17 C        7.4910    -1.3390    -1.0740 C.3   1 <1>   0.1400 
 18 C       -3.2920    -4.7660     1.6860 C.3   1 <1>  -0.0970 
 19 C        6.2540     1.1710    -1.9850 C.3   1 <1>  -0.1600 
 20 C        8.0150     0.0070    -0.5660 C.3   1 <1>  -0.1600 
 21 C        7.7410     1.1400    -1.5770 C.3   1 <1>  -0.0190 
 22 C        8.2010     2.4990    -1.0590 C.2   1 <1>   0.5690 
 23 O        8.9810     3.1390    -1.7190 O.2   1 <1>  -0.5700 
 24 N        7.7230     2.9570     0.1280 N.am  1 <1>  -0.7300 
 25 C        8.0530     4.2800     0.7180 C.3   1 <1>   0.1400 
 26 C        9.4560     4.2650     1.3240 C.3   1 <1>   0.1200 
 27 O        9.6320     5.4370     2.0550 O.3   1 <1>  -0.5600 
 28 C       10.9120     5.5840     2.5780 C.3   1 <1>   0.0400 
 29 H        3.5920    -0.0200     0.4820 H     1 <1>   0.0800 
 30 H        3.1080     0.4420    -1.1490 H     1 <1>   0.0800 
 31 H        2.5280    -3.5580    -0.9250 H     1 <1>   0.0800 
 32 H        3.0850    -3.0750     0.6690 H     1 <1>   0.0800 
 33 H        3.4290    -1.7420    -1.9810 H     1 <1>   0.0800 
 34 H        0.4270    -4.2330    -1.0410 H     1 <1>   0.1500 
 35 H       -0.2310    -1.2800     1.9560 H     1 <1>   0.1500 
 36 H       -1.5700    -5.4210    -0.3150 H     1 <1>   0.1500 
 37 H       -2.2400    -2.4620     2.6780 H     1 <1>   0.1500 
 38 H        4.7360    -0.1560    -2.7200 H     1 <1>   0.0800 
 39 H        6.3200    -0.4890    -3.3480 H     1 <1>   0.0800 
 40 H        8.0210    -1.6320    -1.9640 H     1 <1>   0.0800 
 41 H        7.6550    -2.0970    -0.3270 H     1 <1>   0.0800 
 42 H       -3.1960    -5.8210     1.5000 H     1 <1>   0.0800 
 43 H       -4.1440    -4.3940     1.1470 H     1 <1>   0.0800 
 44 H       -3.4560    -4.6210     2.7390 H     1 <1>   0.0800 
 45 H        5.6480     1.4820    -1.1530 H     1 <1>   0.0800 
 46 H        6.1180     1.8890    -2.7750 H     1 <1>   0.0800 
 47 H        9.0740    -0.0700    -0.3910 H     1 <1>   0.0800 
 48 H        7.5420     0.2180     0.3760 H     1 <1>   0.0800 
 49 H        8.3170     0.9310    -2.4620 H     1 <1>   0.0800 
 50 H        7.0850     2.3750     0.6710 H     1 <1>   0.3700 
 51 H        7.3320     4.5160     1.4820 H     1 <1>   0.0800 
 52 H        8.0090     5.0330    -0.0500 H     1 <1>   0.0800 
 53 H       10.1940     4.2240     0.5400 H     1 <1>   0.0800 
 54 H        9.5700     3.4290     1.9910 H     1 <1>   0.0800 
 55 H       10.9450     6.5090     3.1270 H     1 <1>   0.0800 
 56 H       11.6240     5.6160     1.7720 H     1 <1>   0.0800 
 57 H       11.1240     4.7620     3.2390 H     1 <1>   0.0800 
@<TRIPOS>BOND
  1   1   2  2   
  2   2   3  am  
  3   2   4  1   
  4   3   5  1   
  5   3   6  1   
  6   4   7  1   
  7   4  29  1   
  8   4  30  1   
  9   5   8  ar  
 10   5   9  ar  
 11   6   7  1   
 12   6  31  1   
 13   6  32  1   
 14   7  10  1   
 15   7  33  1   
 16   8  11  ar  
 17   8  34  1   
 18   9  12  ar  
 19   9  35  1   
 20  10  13  2   
 21  10  14  am  
 22  11  15  ar  
 23  11  36  1   
 24  12  15  ar  
 25  12  37  1   
 26  14  16  1   
 27  14  17  1   
 28  15  18  1   
 29  16  19  1   
 30  16  38  1   
 31  16  39  1   
 32  17  20  1   
 33  17  40  1   
 34  17  41  1   
 35  18  42  1   
 36  18  43  1   
 37  18  44  1   
 38  19  21  1   
 39  19  45  1   
 40  19  46  1   
 41  20  21  1   
 42  20  47  1   
 43  20  48  1   
 44  21  22  1   
 45  21  49  1   
 46  22  23  2   
 47  22  24  am  
 48  24  25  1   
 49  24  50  1   
 50  25  26  1   
 51  25  51  1   
 52  25  52  1   
 53  26  27  1   
 54  26  53  1   
 55  26  54  1   
 56  27  28  1   
 57  28  55  1   
 58  28  56  1   
 59  28  57  1   
@<TRIPOS>SUBSTRUCTURE
  1 ****   4 GROUP 4 **** **** 0

# MOE 2024.06 (io_trps.svl 2023.06)
