@<TRIPOS>MOLECULE
5-(2,3-Dimethoxy-phenyl)-2-methylsulfanyl-5,8-dihydro-3H,6H-pyrido[2,3-d]pyrimid
41 43 1 0 0 
SMALL
USER_CHARGES


@<TRIPOS>ATOM
  1 S       -0.2470     0.7890    -0.1370 S.3   1 <1>  -0.3710 
  2 C        1.4150     1.3900    -0.2880 C.2   1 <1>   0.6410 
  3 C       -1.1830     1.7040    -1.4440 C.3   1 <1>  -0.0100 
  4 N        2.2810     0.8380     0.5940 N.pl3 1 <1>  -0.5500 
  5 N        1.7010     2.2640    -1.1750 N.2   1 <1>  -0.6610 
  6 C        3.5830     1.2170     0.5850 C.2   1 <1>   0.2090 
  7 C        3.0050     2.6710    -1.2230 C.2   1 <1>   0.7670 
  8 N        4.4600     0.6630     1.4830 N.am  1 <1>  -0.5390 
  9 C        3.9670     2.1530    -0.3220 C.2   1 <1>  -0.1240 
 10 O        3.3060     3.4850    -2.0860 O.2   1 <1>  -0.5700 
 11 C        5.8020     0.8640     1.4320 C.2   1 <1>   0.5690 
 12 C        5.4130     2.6500    -0.3410 C.3   1 <1>   0.2020 
 13 O        6.5220     0.4390     2.2940 O.2   1 <1>  -0.5700 
 14 C        6.3770     1.5910     0.2320 C.3   1 <1>  -0.0990 
 15 C        5.5770     3.9710     0.4230 C.ar  1 <1>  -0.1430 
 16 C        6.5400     4.8940     0.0170 C.ar  1 <1>   0.0830 
 17 C        4.7900     4.2690     1.5320 C.ar  1 <1>  -0.1500 
 18 O        7.3650     4.5540    -1.0110 O.3   1 <1>  -0.3630 
 19 C        6.6500     6.1270     0.6730 C.ar  1 <1>   0.0830 
 20 C        4.9360     5.4670     2.2080 C.ar  1 <1>  -0.1500 
 21 C        8.7540     4.5450    -0.7510 C.3   1 <1>   0.0400 
 22 O        7.4990     7.1020     0.2660 O.3   1 <1>  -0.3630 
 23 C        5.8620     6.3970     1.7760 C.ar  1 <1>  -0.1500 
 24 C        7.1670     7.7280    -0.9550 C.3   1 <1>   0.0400 
 25 H       -2.2080     1.3840    -1.4050 H     1 <1>   0.0800 
 26 H       -0.7400     1.4680    -2.3960 H     1 <1>   0.0800 
 27 H       -1.0980     2.7560    -1.2370 H     1 <1>   0.0800 
 28 H        1.9100     0.1360     1.2330 H     1 <1>   0.4000 
 29 H        4.1410     0.1000     2.2710 H     1 <1>   0.3700 
 30 H        5.6860     2.8110    -1.3700 H     1 <1>   0.0800 
 31 H        6.5770     0.8560    -0.5240 H     1 <1>   0.0800 
 32 H        7.3120     2.0460     0.5030 H     1 <1>   0.0800 
 33 H        4.0530     3.5750     1.8930 H     1 <1>   0.1500 
 34 H        4.3230     5.6800     3.0670 H     1 <1>   0.1500 
 35 H        9.1230     5.5540    -0.7480 H     1 <1>   0.0800 
 36 H        9.2380     3.9850    -1.5300 H     1 <1>   0.0800 
 37 H        8.9300     4.0800     0.2030 H     1 <1>   0.0800 
 38 H        5.9730     7.3360     2.2870 H     1 <1>   0.1500 
 39 H        7.2080     7.0030    -1.7480 H     1 <1>   0.0800 
 40 H        7.8780     8.5130    -1.1350 H     1 <1>   0.0800 
 41 H        6.1750     8.1370    -0.8760 H     1 <1>   0.0800 
@<TRIPOS>BOND
  1   1   2  1   
  2   1   3  1   
  3   2   4  1   
  4   2   5  2   
  5   3  25  1   
  6   3  26  1   
  7   3  27  1   
  8   4   6  1   
  9   4  28  1   
 10   5   7  1   
 11   6   8  1   
 12   6   9  2   
 13   7   9  1   
 14   7  10  2   
 15   8  11  am  
 16   8  29  1   
 17   9  12  1   
 18  11  13  2   
 19  11  14  1   
 20  12  14  1   
 21  12  15  1   
 22  12  30  1   
 23  14  31  1   
 24  14  32  1   
 25  15  16  ar  
 26  15  17  ar  
 27  16  18  1   
 28  16  19  ar  
 29  17  20  ar  
 30  17  33  1   
 31  18  21  1   
 32  19  22  1   
 33  19  23  ar  
 34  20  23  ar  
 35  20  34  1   
 36  21  35  1   
 37  21  36  1   
 38  21  37  1   
 39  22  24  1   
 40  23  38  1   
 41  24  39  1   
 42  24  40  1   
 43  24  41  1   
@<TRIPOS>SUBSTRUCTURE
  1 ****  12 GROUP 4 **** **** 0

# MOE 2024.06 (io_trps.svl 2023.06)
