@<TRIPOS>MOLECULE
1-Cyclohexyl-3-ethyl-1-(3-m-tolyl-[1,2,4]oxadiazol-5-ylmethyl)-urea
51 53 1 0 0 
SMALL
USER_CHARGES


@<TRIPOS>ATOM
  1 O        0.3500     0.5860    -0.8210 O.2   1 <1>  -0.5700 
  2 C        0.4720     1.7710    -0.5730 C.2   1 <1>   0.6900 
  3 N        1.5010     2.2120     0.2200 N.am  1 <1>  -0.6600 
  4 N       -0.4150     2.6490    -1.0950 N.am  1 <1>  -0.7300 
  5 C        1.6950     3.5920     0.7590 C.3   1 <1>   0.2200 
  6 C        2.5860     1.2500     0.6000 C.3   1 <1>   0.3200 
  7 C       -1.5720     2.3140    -1.9410 C.3   1 <1>   0.1400 
  8 C        0.5030     4.0560     1.6100 C.3   1 <1>  -0.1600 
  9 C        2.0510     4.5930    -0.3530 C.3   1 <1>  -0.1600 
 10 C        3.9400     1.6830     0.0570 C.2   1 <1>   0.2980 
 11 C       -2.7460     3.1920    -1.5240 C.3   1 <1>  -0.2400 
 12 C        0.7540     5.4600     2.1800 C.3   1 <1>  -0.1600 
 13 C        2.2870     5.9940     0.2290 C.3   1 <1>  -0.1600 
 14 O        4.1460     1.6190    -1.2320 O.3   1 <1>  -0.0190 
 15 N        4.9120     2.1280     0.7430 N.2   1 <1>  -0.5650 
 16 C        1.0860     6.4610     1.0640 C.3   1 <1>  -0.1600 
 17 N        5.3530     2.0660    -1.3810 N.2   1 <1>  -0.4100 
 18 C        5.8110     2.3690    -0.2180 C.2   1 <1>   0.4620 
 19 C        7.1310     2.9130     0.0600 C.ar  1 <1>   0.0540 
 20 C        8.0470     3.1490    -0.9670 C.ar  1 <1>  -0.1500 
 21 C        7.5390     3.2230     1.3590 C.ar  1 <1>  -0.1500 
 22 C        9.3070     3.6690    -0.7200 C.ar  1 <1>  -0.1440 
 23 C        8.7930     3.7420     1.6180 C.ar  1 <1>  -0.1500 
 24 C        9.6780     3.9650     0.5790 C.ar  1 <1>  -0.1500 
 25 C       10.2820     3.9140    -1.8580 C.3   1 <1>  -0.0970 
 26 H       -0.2580     3.6340    -0.9030 H     1 <1>   0.3700 
 27 H        2.5410     3.5700     1.4270 H     1 <1>   0.0800 
 28 H        2.3820     0.2580     0.2400 H     1 <1>   0.0800 
 29 H        2.6410     1.1980     1.6730 H     1 <1>   0.0800 
 30 H       -1.8270     1.2730    -1.8220 H     1 <1>   0.0800 
 31 H       -1.3210     2.4890    -2.9740 H     1 <1>   0.0800 
 32 H        0.3550     3.3650     2.4210 H     1 <1>   0.0800 
 33 H       -0.3990     4.0870     1.0290 H     1 <1>   0.0800 
 34 H        1.2640     4.6550    -1.0800 H     1 <1>   0.0800 
 35 H        2.9450     4.2680    -0.8550 H     1 <1>   0.0800 
 36 H       -2.9920     3.0140    -0.4930 H     1 <1>   0.0800 
 37 H       -3.6040     2.9530    -2.1250 H     1 <1>   0.0800 
 38 H       -2.5090     4.2310    -1.6660 H     1 <1>   0.0800 
 39 H        1.5730     5.4220     2.8780 H     1 <1>   0.0800 
 40 H       -0.1190     5.7930     2.7160 H     1 <1>   0.0800 
 41 H        2.4640     6.6910    -0.5710 H     1 <1>   0.0800 
 42 H        3.1670     5.9770     0.8500 H     1 <1>   0.0800 
 43 H        1.3040     7.4220     1.4990 H     1 <1>   0.0800 
 44 H        0.2290     6.5790     0.4230 H     1 <1>   0.0800 
 45 H        7.7620     2.9180    -1.9780 H     1 <1>   0.1500 
 46 H        6.8630     3.0560     2.1800 H     1 <1>   0.1500 
 47 H        9.0830     3.9730     2.6280 H     1 <1>   0.1500 
 48 H       10.6540     4.3680     0.7860 H     1 <1>   0.1500 
 49 H        9.7930     3.8180    -2.8110 H     1 <1>   0.0800 
 50 H       11.0850     3.2010    -1.8090 H     1 <1>   0.0800 
 51 H       10.6910     4.9050    -1.7840 H     1 <1>   0.0800 
@<TRIPOS>BOND
  1   1   2  2   
  2   2   3  am  
  3   2   4  am  
  4   3   5  1   
  5   3   6  1   
  6   4   7  1   
  7   4  26  1   
  8   5   8  1   
  9   5   9  1   
 10   5  27  1   
 11   6  10  1   
 12   6  28  1   
 13   6  29  1   
 14   7  11  1   
 15   7  30  1   
 16   7  31  1   
 17   8  12  1   
 18   8  32  1   
 19   8  33  1   
 20   9  13  1   
 21   9  34  1   
 22   9  35  1   
 23  10  14  1   
 24  10  15  2   
 25  11  36  1   
 26  11  37  1   
 27  11  38  1   
 28  12  16  1   
 29  12  39  1   
 30  12  40  1   
 31  13  16  1   
 32  13  41  1   
 33  13  42  1   
 34  14  17  1   
 35  15  18  1   
 36  16  43  1   
 37  16  44  1   
 38  17  18  2   
 39  18  19  1   
 40  19  20  ar  
 41  19  21  ar  
 42  20  22  ar  
 43  20  45  1   
 44  21  23  ar  
 45  21  46  1   
 46  22  24  ar  
 47  22  25  1   
 48  23  24  ar  
 49  23  47  1   
 50  24  48  1   
 51  25  49  1   
 52  25  50  1   
 53  25  51  1   
@<TRIPOS>SUBSTRUCTURE
  1 ****  10 GROUP 4 **** **** 0

# MOE 2024.06 (io_trps.svl 2023.06)
