@<TRIPOS>MOLECULE
N-(3-Fluoro-2-methyl-phenyl)-2,6-dimethyl-4-(2-oxo-pyrrolidin-1-yl)-benzenesulfo
47 49 1 0 0 
SMALL
USER_CHARGES


@<TRIPOS>ATOM
  1 S        0.1930     0.5800     1.6520 S.o2  1 <1>   1.4470 
  2 O        1.1810    -0.1390     2.4200 O.2   1 <1>  -0.6500 
  3 O       -0.2820     1.8320     2.1920 O.2   1 <1>  -0.6500 
  4 N        1.0290     1.0640     0.2350 N.am  1 <1>  -0.7570 
  5 C       -1.1740    -0.4550     0.9950 C.ar  1 <1>  -0.0090 
  6 C        1.6750     0.1630    -0.5970 C.ar  1 <1>   0.1990 
  7 C       -1.1430    -1.8590     1.0450 C.ar  1 <1>  -0.1440 
  8 C       -2.2850     0.1330     0.3690 C.ar  1 <1>  -0.1430 
  9 C        3.0600    -0.0070    -0.5450 C.ar  1 <1>  -0.1430 
 10 C        0.9250    -0.5790    -1.5060 C.ar  1 <1>  -0.1500 
 11 C       -2.1800    -2.6140     0.5210 C.ar  1 <1>  -0.1500 
 12 C        0.0190    -2.6430     1.6480 C.3   1 <1>  -0.0970 
 13 C       -3.3080    -0.6450    -0.1470 C.ar  1 <1>  -0.1500 
 14 C       -2.4360     1.6420     0.2020 C.3   1 <1>  -0.0970 
 15 C        3.6270    -0.9330    -1.4100 C.ar  1 <1>   0.1900 
 16 C        3.9100     0.7930     0.4430 C.3   1 <1>  -0.0970 
 17 C        1.5180    -1.4970    -2.3540 C.ar  1 <1>  -0.1500 
 18 C       -3.2810    -2.0260    -0.0770 C.ar  1 <1>   0.1170 
 19 F        4.9200    -1.1300    -1.3970 F     1 <1>  -0.1900 
 20 C        2.8870    -1.6800    -2.3080 C.ar  1 <1>  -0.1500 
 21 N       -4.3330    -2.8000    -0.5960 N.am  1 <1>  -0.4770 
 22 C       -5.0070    -2.6040    -1.7660 C.2   1 <1>   0.5690 
 23 C       -4.9490    -3.8830     0.1970 C.3   1 <1>   0.1400 
 24 O       -4.7630    -1.7750    -2.6090 O.2   1 <1>  -0.5700 
 25 C       -6.1540    -3.5670    -1.9090 C.3   1 <1>  -0.0990 
 26 C       -5.9470    -4.5560    -0.7540 C.3   1 <1>  -0.1600 
 27 H        1.5670     1.8860     0.4840 H     1 <1>   0.4200 
 28 H       -0.1400    -0.4330    -1.5560 H     1 <1>   0.1500 
 29 H       -2.1350    -3.6860     0.5610 H     1 <1>   0.1500 
 30 H        0.9420    -2.3770     1.1650 H     1 <1>   0.0800 
 31 H       -0.1140    -3.7020     1.5290 H     1 <1>   0.0800 
 32 H        0.0990    -2.4400     2.7020 H     1 <1>   0.0800 
 33 H       -4.1540    -0.1800    -0.6230 H     1 <1>   0.1500 
 34 H       -1.5480     2.0720    -0.2230 H     1 <1>   0.0800 
 35 H       -2.6330     2.1030     1.1540 H     1 <1>   0.0800 
 36 H       -3.2540     1.8810    -0.4550 H     1 <1>   0.0800 
 37 H        3.8140     1.8460     0.2460 H     1 <1>   0.0800 
 38 H        4.9520     0.5380     0.3760 H     1 <1>   0.0800 
 39 H        3.5890     0.5940     1.4500 H     1 <1>   0.0800 
 40 H        0.9160    -2.0620    -3.0460 H     1 <1>   0.1500 
 41 H        3.3770    -2.3850    -2.9550 H     1 <1>   0.1500 
 42 H       -5.4570    -3.4520     1.0420 H     1 <1>   0.0800 
 43 H       -4.2080    -4.5850     0.5380 H     1 <1>   0.0800 
 44 H       -6.1230    -4.0540    -2.8660 H     1 <1>   0.0800 
 45 H       -7.0770    -3.0280    -1.8000 H     1 <1>   0.0800 
 46 H       -6.8690    -4.7950    -0.2550 H     1 <1>   0.0800 
 47 H       -5.5120    -5.4660    -1.1310 H     1 <1>   0.0800 
@<TRIPOS>BOND
  1   1   2  2   
  2   1   3  2   
  3   1   4  am  
  4   1   5  1   
  5   4   6  1   
  6   4  27  1   
  7   5   7  ar  
  8   5   8  ar  
  9   6   9  ar  
 10   6  10  ar  
 11   7  11  ar  
 12   7  12  1   
 13   8  13  ar  
 14   8  14  1   
 15   9  15  ar  
 16   9  16  1   
 17  10  17  ar  
 18  10  28  1   
 19  11  18  ar  
 20  11  29  1   
 21  12  30  1   
 22  12  31  1   
 23  12  32  1   
 24  13  18  ar  
 25  13  33  1   
 26  14  34  1   
 27  14  35  1   
 28  14  36  1   
 29  15  19  1   
 30  15  20  ar  
 31  16  37  1   
 32  16  38  1   
 33  16  39  1   
 34  17  20  ar  
 35  17  40  1   
 36  18  21  1   
 37  20  41  1   
 38  21  22  am  
 39  21  23  1   
 40  22  24  2   
 41  22  25  1   
 42  23  26  1   
 43  23  42  1   
 44  23  43  1   
 45  25  26  1   
 46  25  44  1   
 47  25  45  1   
 48  26  46  1   
 49  26  47  1   
@<TRIPOS>SUBSTRUCTURE
  1 ****   5 GROUP 4 **** **** 0

# MOE 2024.06 (io_trps.svl 2023.06)
