@<TRIPOS>MOLECULE
1-[3-(4-Chloro-phenyl)-[1,2,4]oxadiazol-5-ylmethyl]-3-ethyl-1-isopropyl-urea
41 42 1 0 0 
SMALL
USER_CHARGES


@<TRIPOS>ATOM
  1 CL      -0.6840     1.8320    -0.2780 Cl    1 <1>  -0.1770 
  2 C       -2.3270     1.2790    -0.0940 C.ar  1 <1>   0.1770 
  3 C       -2.8430     1.0860     1.1720 C.ar  1 <1>  -0.1500 
  4 C       -3.0940     1.0400    -1.2170 C.ar  1 <1>  -0.1500 
  5 C       -4.1490     0.6470     1.3110 C.ar  1 <1>  -0.1500 
  6 C       -4.3980     0.6010    -1.0660 C.ar  1 <1>  -0.1500 
  7 C       -4.9590     0.3940     0.1990 C.ar  1 <1>   0.0540 
  8 C       -6.3300    -0.0640     0.3600 C.2   1 <1>   0.4620 
  9 N       -6.9170    -0.2920     1.4800 N.2   1 <1>  -0.4100 
 10 N       -7.1400    -0.2960    -0.6780 N.2   1 <1>  -0.5650 
 11 O       -8.1280    -0.6790     1.2260 O.3   1 <1>  -0.0190 
 12 C       -8.2010    -0.6590    -0.0790 C.2   1 <1>   0.2980 
 13 C       -9.5160    -1.0460    -0.7400 C.3   1 <1>   0.3200 
 14 N      -10.5820    -0.0210    -0.4940 N.am  1 <1>  -0.6600 
 15 C      -11.6840    -0.3790     0.2420 C.2   1 <1>   0.6900 
 16 C      -10.2980     1.3090    -1.1050 C.3   1 <1>   0.2200 
 17 O      -11.8660    -1.5410     0.5540 O.2   1 <1>  -0.5700 
 18 N      -12.5760     0.5570     0.6390 N.am  1 <1>  -0.7300 
 19 C      -10.0050     2.3590    -0.0320 C.3   1 <1>  -0.2400 
 20 C      -11.4150     1.7370    -2.0590 C.3   1 <1>  -0.2400 
 21 C      -13.7960     0.3130     1.4270 C.3   1 <1>   0.1400 
 22 C      -14.9090     1.2010     0.8850 C.3   1 <1>  -0.2400 
 23 H       -2.2290     1.2770     2.0330 H     1 <1>   0.1500 
 24 H       -2.6730     1.1960    -2.1940 H     1 <1>   0.1500 
 25 H       -4.5480     0.4970     2.3000 H     1 <1>   0.1500 
 26 H       -4.9920     0.4150    -1.9440 H     1 <1>   0.1500 
 27 H       -9.8030    -2.0150    -0.3740 H     1 <1>   0.0800 
 28 H       -9.3610    -1.1380    -1.8000 H     1 <1>   0.0800 
 29 H       -9.4050     1.2190    -1.7040 H     1 <1>   0.0800 
 30 H      -12.3610     1.5230     0.4140 H     1 <1>   0.3700 
 31 H      -10.8700     2.5840     0.5610 H     1 <1>   0.0800 
 32 H       -9.6760     3.2690    -0.5000 H     1 <1>   0.0800 
 33 H       -9.2170     2.0150     0.6150 H     1 <1>   0.0800 
 34 H      -12.3240     1.9700    -1.5380 H     1 <1>   0.0800 
 35 H      -11.6090     0.9540    -2.7700 H     1 <1>   0.0800 
 36 H      -11.1100     2.6140    -2.5990 H     1 <1>   0.0800 
 37 H      -13.6030     0.5410     2.4620 H     1 <1>   0.0800 
 38 H      -14.0800    -0.7250     1.3530 H     1 <1>   0.0800 
 39 H      -14.6450     2.2380     0.9820 H     1 <1>   0.0800 
 40 H      -15.8110     1.0250     1.4420 H     1 <1>   0.0800 
 41 H      -15.0960     0.9690    -0.1480 H     1 <1>   0.0800 
@<TRIPOS>BOND
  1   1   2  1   
  2   2   3  ar  
  3   2   4  ar  
  4   3   5  ar  
  5   3  23  1   
  6   4   6  ar  
  7   4  24  1   
  8   5   7  ar  
  9   5  25  1   
 10   6   7  ar  
 11   6  26  1   
 12   7   8  1   
 13   8   9  2   
 14   8  10  1   
 15   9  11  1   
 16  10  12  2   
 17  11  12  1   
 18  12  13  1   
 19  13  14  1   
 20  13  27  1   
 21  13  28  1   
 22  14  15  am  
 23  14  16  1   
 24  15  17  2   
 25  15  18  am  
 26  16  19  1   
 27  16  20  1   
 28  16  29  1   
 29  18  21  1   
 30  18  30  1   
 31  19  31  1   
 32  19  32  1   
 33  19  33  1   
 34  20  34  1   
 35  20  35  1   
 36  20  36  1   
 37  21  22  1   
 38  21  37  1   
 39  21  38  1   
 40  22  39  1   
 41  22  40  1   
 42  22  41  1   
@<TRIPOS>SUBSTRUCTURE
  1 ****  12 GROUP 4 **** **** 0

# MOE 2024.06 (io_trps.svl 2023.06)
