@<TRIPOS>MOLECULE
N-[2-Methoxy-5-(morpholine-4-sulfonyl)-phenyl]-2-phenoxy-acetamide
50 52 1 0 0 
SMALL
USER_CHARGES


@<TRIPOS>ATOM
  1 S        0.2700    -1.2960    -1.0070 S.o2  1 <1>   1.4470 
  2 O        0.6930    -0.3800    -2.0430 O.2   1 <1>  -0.6500 
  3 O        1.0750    -2.4690    -0.7410 O.2   1 <1>  -0.6500 
  4 N        0.1990    -0.4130     0.4380 N.am  1 <1>  -0.8490 
  5 C       -1.4470    -1.7980    -1.3220 C.ar  1 <1>  -0.0090 
  6 C        1.4230     0.3670     0.6650 C.3   1 <1>   0.1960 
  7 C       -0.0700    -1.2520     1.6190 C.3   1 <1>   0.1960 
  8 C       -2.5190    -1.1380    -0.7350 C.ar  1 <1>  -0.1500 
  9 C       -1.7330    -2.8570    -2.1750 C.ar  1 <1>  -0.1500 
 10 C        1.3260     1.1790     1.9700 C.3   1 <1>   0.1200 
 11 C       -0.1460    -0.3910     2.8920 C.3   1 <1>   0.1200 
 12 C       -3.8340    -1.5350    -0.9360 C.ar  1 <1>   0.1170 
 13 C       -3.0360    -3.2520    -2.4240 C.ar  1 <1>  -0.1500 
 14 O        1.0360     0.3430     3.0560 O.3   1 <1>  -0.5600 
 15 N       -4.9040    -0.9010    -0.2850 N.am  1 <1>  -0.5470 
 16 C       -4.0950    -2.5940    -1.8090 C.ar  1 <1>   0.0820 
 17 C       -4.9780    -0.2440     0.9120 C.2   1 <1>   0.5690 
 18 O       -5.4020    -2.9310    -2.0130 O.3   1 <1>  -0.3630 
 19 O       -4.0240    -0.0700     1.6350 O.2   1 <1>  -0.5700 
 20 C       -6.3320     0.2840     1.3680 C.3   1 <1>   0.1810 
 21 C       -5.7620    -4.0060    -2.8530 C.3   1 <1>   0.0400 
 22 O       -7.3780    -0.1770     0.5210 O.3   1 <1>  -0.3630 
 23 C       -8.6680     0.1750     0.7440 C.ar  1 <1>   0.0820 
 24 C       -9.6110    -0.3270    -0.1390 C.ar  1 <1>  -0.1500 
 25 C       -9.0790     0.9950     1.7920 C.ar  1 <1>  -0.1500 
 26 C      -10.9510    -0.0170     0.0150 C.ar  1 <1>  -0.1500 
 27 C      -10.4200     1.3030     1.9440 C.ar  1 <1>  -0.1500 
 28 C      -11.3550     0.7980     1.0580 C.ar  1 <1>  -0.1500 
 29 H        1.5750     1.0480    -0.1560 H     1 <1>   0.0800 
 30 H        2.2760    -0.2900     0.7160 H     1 <1>   0.0800 
 31 H        0.7080    -1.9880     1.7420 H     1 <1>   0.0800 
 32 H       -1.0050    -1.7710     1.4970 H     1 <1>   0.0800 
 33 H       -2.3250    -0.2920    -0.1000 H     1 <1>   0.1500 
 34 H       -0.9190    -3.3800    -2.6500 H     1 <1>   0.1500 
 35 H        0.5510     1.9220     1.8920 H     1 <1>   0.0800 
 36 H        2.2600     1.6710     2.1740 H     1 <1>   0.0800 
 37 H       -0.2680    -1.0160     3.7590 H     1 <1>   0.0800 
 38 H       -0.9770     0.2920     2.8360 H     1 <1>   0.0800 
 39 H       -3.2010    -4.0720    -3.0970 H     1 <1>   0.1500 
 40 H       -5.8160    -1.1010    -0.7090 H     1 <1>   0.3700 
 41 H       -6.3210     1.3570     1.3420 H     1 <1>   0.0800 
 42 H       -6.5280    -0.0610     2.3670 H     1 <1>   0.0800 
 43 H       -6.8340    -4.0880    -2.8490 H     1 <1>   0.0800 
 44 H       -5.3250    -4.9110    -2.4700 H     1 <1>   0.0800 
 45 H       -5.4160    -3.8010    -3.8510 H     1 <1>   0.0800 
 46 H       -9.2910    -0.9600    -0.9470 H     1 <1>   0.1500 
 47 H       -8.3790     1.4020     2.4970 H     1 <1>   0.1500 
 48 H      -11.6770    -0.4100    -0.6750 H     1 <1>   0.1500 
 49 H      -10.7380     1.9370     2.7540 H     1 <1>   0.1500 
 50 H      -12.3970     1.0390     1.1780 H     1 <1>   0.1500 
@<TRIPOS>BOND
  1   1   2  2   
  2   1   3  2   
  3   1   4  am  
  4   1   5  1   
  5   4   6  1   
  6   4   7  1   
  7   5   8  ar  
  8   5   9  ar  
  9   6  10  1   
 10   6  29  1   
 11   6  30  1   
 12   7  11  1   
 13   7  31  1   
 14   7  32  1   
 15   8  12  ar  
 16   8  33  1   
 17   9  13  ar  
 18   9  34  1   
 19  10  14  1   
 20  10  35  1   
 21  10  36  1   
 22  11  14  1   
 23  11  37  1   
 24  11  38  1   
 25  12  15  1   
 26  12  16  ar  
 27  13  16  ar  
 28  13  39  1   
 29  15  17  am  
 30  15  40  1   
 31  16  18  1   
 32  17  19  2   
 33  17  20  1   
 34  18  21  1   
 35  20  22  1   
 36  20  41  1   
 37  20  42  1   
 38  21  43  1   
 39  21  44  1   
 40  21  45  1   
 41  22  23  1   
 42  23  24  ar  
 43  23  25  ar  
 44  24  26  ar  
 45  24  46  1   
 46  25  27  ar  
 47  25  47  1   
 48  26  28  ar  
 49  26  48  1   
 50  27  28  ar  
 51  27  49  1   
 52  28  50  1   
@<TRIPOS>SUBSTRUCTURE
  1 ****  15 GROUP 4 **** **** 0

# MOE 2024.06 (io_trps.svl 2023.06)
