@<TRIPOS>MOLECULE
N-Cyclohexyl-N-(3-phenyl-[1,2,4]oxadiazol-5-ylmethyl)-acetamide
43 45 1 0 0 
SMALL
USER_CHARGES


@<TRIPOS>ATOM
  1 O        0.4310     1.0010     1.9490 O.2   1 <1>  -0.5700 
  2 C        0.5090     2.0960     1.4480 C.2   1 <1>   0.5690 
  3 N        1.4940     2.3890     0.5350 N.am  1 <1>  -0.6600 
  4 C       -0.5540     3.0810     1.8800 C.3   1 <1>  -0.1790 
  5 C        1.7850     3.6850    -0.1610 C.3   1 <1>   0.2200 
  6 C        2.4780     1.3080     0.1790 C.3   1 <1>   0.3200 
  7 C        2.4000     4.7270     0.7860 C.3   1 <1>  -0.1600 
  8 C        0.5880     4.2450    -0.9420 C.3   1 <1>  -0.1600 
  9 C        3.8880     1.6430     0.6420 C.2   1 <1>   0.2980 
 10 C        2.7960     5.9920     0.0090 C.3   1 <1>  -0.1600 
 11 C        1.0020     5.5010    -1.7240 C.3   1 <1>  -0.1600 
 12 O        4.1460     1.6330     1.9230 O.3   1 <1>  -0.0190 
 13 N        4.8660     1.9530    -0.1090 N.2   1 <1>  -0.5650 
 14 C        1.6110     6.5570    -0.7880 C.3   1 <1>  -0.1600 
 15 N        5.3950     1.9710     1.9950 N.2   1 <1>  -0.4100 
 16 C        5.8260     2.1610     0.7980 C.2   1 <1>   0.4620 
 17 C        7.1770     2.5600     0.4360 C.ar  1 <1>   0.0540 
 18 C        7.5530     2.7590    -0.8950 C.ar  1 <1>  -0.1500 
 19 C        8.1570     2.7620     1.4090 C.ar  1 <1>  -0.1500 
 20 C        8.8380     3.1410    -1.2360 C.ar  1 <1>  -0.1500 
 21 C        9.4440     3.1420     1.0750 C.ar  1 <1>  -0.1500 
 22 C        9.7880     3.3330    -0.2500 C.ar  1 <1>  -0.1500 
 23 H       -0.1500     4.0560     2.0490 H     1 <1>   0.0800 
 24 H       -0.9960     2.7440     2.8000 H     1 <1>   0.0800 
 25 H       -1.3260     3.1240     1.1360 H     1 <1>   0.0800 
 26 H        2.5390     3.4860    -0.9050 H     1 <1>   0.0800 
 27 H        2.4840     1.1850    -0.8890 H     1 <1>   0.0800 
 28 H        2.1990     0.3610     0.6040 H     1 <1>   0.0800 
 29 H        3.2770     4.3200     1.2570 H     1 <1>   0.0800 
 30 H        1.7070     5.0030     1.5550 H     1 <1>   0.0800 
 31 H       -0.2070     4.5250    -0.2800 H     1 <1>   0.0800 
 32 H        0.2230     3.5010    -1.6280 H     1 <1>   0.0800 
 33 H        3.6000     5.7560    -0.6680 H     1 <1>   0.0800 
 34 H        3.1580     6.7380     0.6960 H     1 <1>   0.0800 
 35 H        0.1440     5.9150    -2.2230 H     1 <1>   0.0800 
 36 H        1.7240     5.2350    -2.4770 H     1 <1>   0.0800 
 37 H        1.9390     7.4030    -1.3660 H     1 <1>   0.0800 
 38 H        0.8550     6.9020    -0.1030 H     1 <1>   0.0800 
 39 H        6.8270     2.6140    -1.6760 H     1 <1>   0.1500 
 40 H        7.9080     2.6180     2.4460 H     1 <1>   0.1500 
 41 H        9.0990     3.2870    -2.2700 H     1 <1>   0.1500 
 42 H       10.1800     3.2900     1.8470 H     1 <1>   0.1500 
 43 H       10.7890     3.6290    -0.5130 H     1 <1>   0.1500 
@<TRIPOS>BOND
  1   1   2  2   
  2   2   3  am  
  3   2   4  1   
  4   3   5  1   
  5   3   6  1   
  6   4  23  1   
  7   4  24  1   
  8   4  25  1   
  9   5   7  1   
 10   5   8  1   
 11   5  26  1   
 12   6   9  1   
 13   6  27  1   
 14   6  28  1   
 15   7  10  1   
 16   7  29  1   
 17   7  30  1   
 18   8  11  1   
 19   8  31  1   
 20   8  32  1   
 21   9  12  1   
 22   9  13  2   
 23  10  14  1   
 24  10  33  1   
 25  10  34  1   
 26  11  14  1   
 27  11  35  1   
 28  11  36  1   
 29  12  15  1   
 30  13  16  1   
 31  14  37  1   
 32  14  38  1   
 33  15  16  2   
 34  16  17  1   
 35  17  18  ar  
 36  17  19  ar  
 37  18  20  ar  
 38  18  39  1   
 39  19  21  ar  
 40  19  40  1   
 41  20  22  ar  
 42  20  41  1   
 43  21  22  ar  
 44  21  42  1   
 45  22  43  1   
@<TRIPOS>SUBSTRUCTURE
  1 ****   9 GROUP 4 **** **** 0

# MOE 2024.06 (io_trps.svl 2023.06)
