@<TRIPOS>MOLECULE
3-Ethyl-8-(3-methoxy-propyl)-1,6,7-trimethyl-1H,8H-imidazo[2,1-f]purine-2,4-dion
48 50 1 0 0 
SMALL
USER_CHARGES


@<TRIPOS>ATOM
  1 O        1.2690    -0.3250     1.1070 O.2   1 <1>  -0.5750 
  2 C        2.0830     0.4880     0.7230 C.2   1 <1>   0.6860 
  3 N        1.7460     1.8360     0.6400 N.am  1 <1>  -0.4260 
  4 N        3.3600     0.0660     0.3720 N.am  1 <1>  -0.4420 
  5 C        2.6760     2.7900     0.2460 C.2   1 <1>   0.6990 
  6 C        0.3510     2.2620     0.9600 C.3   1 <1>   0.1320 
  7 C        4.2790     1.0210    -0.0160 C.2   1 <1>   0.4200 
  8 C        3.7310    -1.3790     0.4460 C.3   1 <1>   0.0520 
  9 O        2.3770     3.9720     0.1930 O.2   1 <1>  -0.5750 
 10 C        3.9890     2.3430    -0.0890 C.2   1 <1>   0.2700 
 11 C       -0.5030     2.2340    -0.3070 C.3   1 <1>  -0.2470 
 12 N        5.5830     0.8220    -0.3670 N.pl3 1 <1>  -0.7040 
 13 N        5.1710     2.9820    -0.5040 N.pl3 1 <1>  -0.6330 
 14 C        6.0820     2.0310    -0.6480 C.cat 1 <1>   1.0690 
 15 C        5.7970     4.1780    -0.7900 C.2   1 <1>   0.2340 
 16 N        7.2690     2.5250    -1.0190 N.pl3 1 <1>  -0.5720 
 17 C        7.0860     3.8980    -1.1060 C.2   1 <1>   0.1570 
 18 C        5.0350     5.4860    -0.7140 C.3   1 <1>  -0.1100 
 19 C        8.5080     1.7460    -1.2540 C.3   1 <1>   0.1600 
 20 C        8.2190     4.8320    -1.4950 C.3   1 <1>  -0.1100 
 21 C        9.0370     1.2150     0.0780 C.3   1 <1>  -0.1670 
 22 C       10.1740     0.2170    -0.1400 C.3   1 <1>   0.1120 
 23 O       10.2810    -0.5650     1.0010 O.3   1 <1>  -0.5650 
 24 C       11.1510    -0.0750     1.9740 C.3   1 <1>   0.0320 
 25 H        0.3530     3.2560     1.3750 H     1 <1>   0.0720 
 26 H       -0.0760     1.6070     1.7010 H     1 <1>   0.0720 
 27 H        2.8550    -1.9990     0.3540 H     1 <1>   0.0720 
 28 H        4.1980    -1.5860     1.3930 H     1 <1>   0.0720 
 29 H        4.4050    -1.6380    -0.3520 H     1 <1>   0.0720 
 30 H       -0.1130     2.9130    -1.0430 H     1 <1>   0.0720 
 31 H       -1.5070     2.5360    -0.0680 H     1 <1>   0.0720 
 32 H       -0.5400     1.2380    -0.7130 H     1 <1>   0.0720 
 33 H        6.1160    -0.0450    -0.3570 H     1 <1>   0.4450 
 34 H        4.6610     5.6360     0.2830 H     1 <1>   0.0720 
 35 H        4.2010     5.4650    -1.3930 H     1 <1>   0.0720 
 36 H        5.6650     6.3170    -0.9720 H     1 <1>   0.0720 
 37 H        9.2560     2.3600    -1.7270 H     1 <1>   0.0720 
 38 H        8.2860     0.9250    -1.9150 H     1 <1>   0.0720 
 39 H        8.5710     4.5960    -2.4840 H     1 <1>   0.0720 
 40 H        9.0350     4.7320    -0.8010 H     1 <1>   0.0720 
 41 H        7.8940     5.8560    -1.4880 H     1 <1>   0.0720 
 42 H        8.2510     0.7060     0.6060 H     1 <1>   0.0720 
 43 H        9.3920     2.0330     0.6790 H     1 <1>   0.0720 
 44 H       11.1140     0.7010    -0.3510 H     1 <1>   0.0720 
 45 H        9.9400    -0.4540    -0.9490 H     1 <1>   0.0720 
 46 H       11.1350    -0.7550     2.8080 H     1 <1>   0.0720 
 47 H       10.8250     0.8980     2.2940 H     1 <1>   0.0720 
 48 H       12.1460    -0.0280     1.5670 H     1 <1>   0.0720 
@<TRIPOS>BOND
  1   1   2  2   
  2   2   3  am  
  3   2   4  am  
  4   3   5  am  
  5   3   6  1   
  6   4   7  1   
  7   4   8  1   
  8   5   9  2   
  9   5  10  1   
 10   6  11  1   
 11   6  25  1   
 12   6  26  1   
 13   7  10  2   
 14   7  12  1   
 15   8  27  1   
 16   8  28  1   
 17   8  29  1   
 18  10  13  1   
 19  11  30  1   
 20  11  31  1   
 21  11  32  1   
 22  12  14  ar  
 23  12  33  1   
 24  13  14  ar  
 25  13  15  1   
 26  14  16  ar  
 27  15  17  2   
 28  15  18  1   
 29  16  17  1   
 30  16  19  1   
 31  17  20  1   
 32  18  34  1   
 33  18  35  1   
 34  18  36  1   
 35  19  21  1   
 36  19  37  1   
 37  19  38  1   
 38  20  39  1   
 39  20  40  1   
 40  20  41  1   
 41  21  22  1   
 42  21  42  1   
 43  21  43  1   
 44  22  23  1   
 45  22  44  1   
 46  22  45  1   
 47  23  24  1   
 48  24  46  1   
 49  24  47  1   
 50  24  48  1   
@<TRIPOS>SUBSTRUCTURE
  1 ****  14 GROUP 4 **** **** 0

# MOE 2024.06 (io_trps.svl 2023.06)
