@<TRIPOS>MOLECULE
NONAME
47 51 1 0 0 
SMALL
USER_CHARGES


@<TRIPOS>ATOM
  1 O        1.2550     0.5970    -0.7970 O.2   1 <1>  -0.5700 
  2 C        1.6290    -0.4750    -0.4130 C.2   1 <1>   0.4480 
  3 C        0.8580    -1.7800    -0.6300 C.3   1 <1>   0.0610 
  4 C        2.9550    -0.6860     0.3190 C.3   1 <1>   0.0610 
  5 C        0.6500    -2.4030     0.7670 C.3   1 <1>   0.1100 
  6 C        1.8030    -2.6830    -1.4490 C.3   1 <1>   0.1100 
  7 C       -0.4830    -1.6140    -1.3930 C.3   1 <1>  -0.1600 
  8 C        2.6240    -1.3730     1.6590 C.3   1 <1>   0.1100 
  9 C        3.7800    -1.6560    -0.5480 C.3   1 <1>   0.1100 
 10 C        3.7360     0.6210     0.5620 C.3   1 <1>  -0.2400 
 11 N        1.9480    -2.6710     1.4160 N.3   1 <1>  -0.8100 
 12 N        3.0550    -2.9400    -0.7070 N.3   1 <1>  -0.8100 
 13 C       -1.5890    -0.8710    -0.6240 C.3   1 <1>  -0.2400 
 14 C        2.8350    -3.6010     0.6290 C.3   1 <1>   0.7440 
 15 C        4.1800    -3.9800     1.3790 C.2   1 <1>   0.5690 
 16 C        2.2450    -5.0400     0.5050 C.ar  1 <1>  -0.1440 
 17 O        5.0730    -3.2460     1.7550 O.2   1 <1>  -0.5700 
 18 N        4.2450    -5.3130     1.5790 N.am  1 <1>  -0.5470 
 19 C        3.1290    -5.9430     1.0780 C.ar  1 <1>   0.1170 
 20 C        1.0700    -5.5500    -0.0410 C.ar  1 <1>  -0.1500 
 21 C        2.8790    -7.3030     1.1190 C.ar  1 <1>  -0.1500 
 22 C        0.7990    -6.9120    -0.0080 C.ar  1 <1>  -0.1440 
 23 C        1.7060    -7.7860     0.5710 C.ar  1 <1>  -0.1500 
 24 C       -0.4910    -7.4360    -0.6130 C.3   1 <1>  -0.0970 
 25 H        0.0670    -3.3000     0.7160 H     1 <1>   0.0800 
 26 H        0.0940    -1.7180     1.3850 H     1 <1>   0.0800 
 27 H        1.3350    -3.6090    -1.7130 H     1 <1>   0.0800 
 28 H        2.0420    -2.1930    -2.3780 H     1 <1>   0.0800 
 29 H       -0.8600    -2.5860    -1.6600 H     1 <1>   0.0800 
 30 H       -0.2920    -1.0830    -2.3110 H     1 <1>   0.0800 
 31 H        3.5180    -1.5150     2.2390 H     1 <1>   0.0800 
 32 H        1.9770    -0.7370     2.2400 H     1 <1>   0.0800 
 33 H        4.7490    -1.8190    -0.1150 H     1 <1>   0.0800 
 34 H        3.9450    -1.2190    -1.5190 H     1 <1>   0.0800 
 35 H        3.1500     1.3000     1.1550 H     1 <1>   0.0800 
 36 H        3.9590     1.1000    -0.3750 H     1 <1>   0.0800 
 37 H        4.6590     0.4200     1.0760 H     1 <1>   0.0800 
 38 H       -1.9050    -1.4260     0.2400 H     1 <1>   0.0800 
 39 H       -2.4430    -0.7360    -1.2630 H     1 <1>   0.0800 
 40 H       -1.2520     0.1020    -0.3110 H     1 <1>   0.0800 
 41 H        5.0350    -5.7520     2.0490 H     1 <1>   0.3700 
 42 H        0.3400    -4.9170    -0.5000 H     1 <1>   0.1500 
 43 H        3.5880    -7.9710     1.5720 H     1 <1>   0.1500 
 44 H        1.5030    -8.8430     0.5980 H     1 <1>   0.1500 
 45 H       -1.3250    -6.8520    -0.2670 H     1 <1>   0.0800 
 46 H       -0.6570    -8.4620    -0.3340 H     1 <1>   0.0800 
 47 H       -0.4420    -7.3750    -1.6850 H     1 <1>   0.0800 
@<TRIPOS>BOND
  1   1   2  2   
  2   2   3  1   
  3   2   4  1   
  4   3   5  1   
  5   3   6  1   
  6   3   7  1   
  7   4   8  1   
  8   4   9  1   
  9   4  10  1   
 10   5  11  1   
 11   5  25  1   
 12   5  26  1   
 13   6  12  1   
 14   6  27  1   
 15   6  28  1   
 16   7  13  1   
 17   7  29  1   
 18   7  30  1   
 19   8  11  1   
 20   8  31  1   
 21   8  32  1   
 22   9  12  1   
 23   9  33  1   
 24   9  34  1   
 25  10  35  1   
 26  10  36  1   
 27  10  37  1   
 28  11  14  1   
 29  12  14  1   
 30  13  38  1   
 31  13  39  1   
 32  13  40  1   
 33  14  15  1   
 34  14  16  1   
 35  15  17  2   
 36  15  18  am  
 37  16  19  ar  
 38  16  20  ar  
 39  18  19  1   
 40  18  41  1   
 41  19  21  ar  
 42  20  22  ar  
 43  20  42  1   
 44  21  23  ar  
 45  21  43  1   
 46  22  23  ar  
 47  22  24  1   
 48  23  44  1   
 49  24  45  1   
 50  24  46  1   
 51  24  47  1   
@<TRIPOS>SUBSTRUCTURE
  1 ****  14 GROUP 4 **** **** 0

# MOE 2024.06 (io_trps.svl 2023.06)
