@<TRIPOS>MOLECULE
4-Cyclohexyl-N-(1-methanesulfonyl-2,3-dihydro-1H-indol-5-yl)-benzenesulfonamide
55 58 1 0 0 
SMALL
USER_CHARGES


@<TRIPOS>ATOM
  1 S        1.4210     1.0680     1.5490 S.o2  1 <1>   1.4470 
  2 O        1.6110     1.7670     2.7970 O.2   1 <1>  -0.6500 
  3 O        2.3320     1.2410     0.4420 O.2   1 <1>  -0.6500 
  4 N        1.4920    -0.5850     2.0050 N.am  1 <1>  -0.7570 
  5 C       -0.3020     1.2150     1.0050 C.ar  1 <1>  -0.0090 
  6 C        1.1210    -1.6340     1.1750 C.ar  1 <1>   0.1990 
  7 C       -0.6670     0.9210    -0.3030 C.ar  1 <1>  -0.1500 
  8 C       -1.3100     1.5830     1.8870 C.ar  1 <1>  -0.1500 
  9 C        1.7170    -1.8120    -0.0700 C.ar  1 <1>  -0.1500 
 10 C        0.1230    -2.5160     1.5820 C.ar  1 <1>  -0.1500 
 11 C       -1.9860     0.9890    -0.7150 C.ar  1 <1>  -0.1500 
 12 C       -2.6310     1.6510     1.4810 C.ar  1 <1>  -0.1500 
 13 C        1.2970    -2.8470    -0.8820 C.ar  1 <1>  -0.1430 
 14 C       -0.2900    -3.5520     0.7610 C.ar  1 <1>  -0.1500 
 15 C       -2.9840     1.3530     0.1750 C.ar  1 <1>  -0.1430 
 16 C        0.3070    -3.7150    -0.4810 C.ar  1 <1>   0.1990 
 17 C        1.7880    -3.2180    -2.2630 C.3   1 <1>  -0.0170 
 18 C       -4.4480     1.4280    -0.2580 C.3   1 <1>   0.0630 
 19 N        0.0630    -4.6690    -1.4540 N.am  1 <1>  -0.6930 
 20 C        0.9430    -4.4530    -2.6230 C.3   1 <1>   0.1960 
 21 C       -4.9570     0.0590    -0.7400 C.3   1 <1>  -0.1600 
 22 C       -4.6540     2.5040    -1.3370 C.3   1 <1>  -0.1600 
 23 S       -0.8440    -6.1320    -1.3080 S.o2  1 <1>   1.3330 
 24 C       -6.4240     0.1310    -1.1870 C.3   1 <1>  -0.1600 
 25 C       -6.1220     2.5770    -1.7840 C.3   1 <1>  -0.1600 
 26 O       -0.8890    -6.7200    -2.6250 O.2   1 <1>  -0.6500 
 27 O       -2.0480    -5.8490    -0.5650 O.2   1 <1>  -0.6500 
 28 C        0.2370    -7.1180    -0.2950 C.3   1 <1>  -0.1350 
 29 C       -6.6240     1.2080    -2.2620 C.3   1 <1>  -0.1600 
 30 H        1.2770    -0.6640     2.9920 H     1 <1>   0.4200 
 31 H        0.0920     0.6300    -1.0110 H     1 <1>   0.1500 
 32 H       -1.0610     1.8200     2.9080 H     1 <1>   0.1500 
 33 H        2.4990    -1.1490    -0.3930 H     1 <1>   0.1500 
 34 H       -0.3440    -2.3850     2.5410 H     1 <1>   0.1500 
 35 H       -2.2300     0.7520    -1.7360 H     1 <1>   0.1500 
 36 H       -3.3860     1.9390     2.1930 H     1 <1>   0.1500 
 37 H       -1.0740    -4.2170     1.0770 H     1 <1>   0.1500 
 38 H        2.8350    -3.4600    -2.2500 H     1 <1>   0.0800 
 39 H        1.6090    -2.4200    -2.9620 H     1 <1>   0.0800 
 40 H       -5.0410     1.7090     0.5950 H     1 <1>   0.0800 
 41 H        1.5670    -5.3160    -2.7820 H     1 <1>   0.0800 
 42 H        0.3430    -4.2740    -3.4990 H     1 <1>   0.0800 
 43 H       -4.8570    -0.6590     0.0540 H     1 <1>   0.0800 
 44 H       -4.3590    -0.2820    -1.5670 H     1 <1>   0.0800 
 45 H       -4.0400     2.2830    -2.1920 H     1 <1>   0.0800 
 46 H       -4.3470     3.4600    -0.9500 H     1 <1>   0.0800 
 47 H       -7.0460     0.3560    -0.3370 H     1 <1>   0.0800 
 48 H       -6.7290    -0.8260    -1.5740 H     1 <1>   0.0800 
 49 H       -6.2210     3.2950    -2.5790 H     1 <1>   0.0800 
 50 H       -6.7300     2.9110    -0.9610 H     1 <1>   0.0800 
 51 H        1.1820    -7.2520    -0.7840 H     1 <1>   0.0800 
 52 H       -0.2010    -8.0800    -0.1220 H     1 <1>   0.0800 
 53 H        0.3990    -6.6370     0.6490 H     1 <1>   0.0800 
 54 H       -7.6680     1.2750    -2.5140 H     1 <1>   0.0800 
 55 H       -6.0890     0.9240    -3.1530 H     1 <1>   0.0800 
@<TRIPOS>BOND
  1   1   2  2   
  2   1   3  2   
  3   1   4  am  
  4   1   5  1   
  5   4   6  1   
  6   4  30  1   
  7   5   7  ar  
  8   5   8  ar  
  9   6   9  ar  
 10   6  10  ar  
 11   7  11  ar  
 12   7  31  1   
 13   8  12  ar  
 14   8  32  1   
 15   9  13  ar  
 16   9  33  1   
 17  10  14  ar  
 18  10  34  1   
 19  11  15  ar  
 20  11  35  1   
 21  12  15  ar  
 22  12  36  1   
 23  13  16  ar  
 24  13  17  1   
 25  14  16  ar  
 26  14  37  1   
 27  15  18  1   
 28  16  19  1   
 29  17  20  1   
 30  17  38  1   
 31  17  39  1   
 32  18  21  1   
 33  18  22  1   
 34  18  40  1   
 35  19  20  1   
 36  19  23  am  
 37  20  41  1   
 38  20  42  1   
 39  21  24  1   
 40  21  43  1   
 41  21  44  1   
 42  22  25  1   
 43  22  45  1   
 44  22  46  1   
 45  23  26  2   
 46  23  27  2   
 47  23  28  1   
 48  24  29  1   
 49  24  47  1   
 50  24  48  1   
 51  25  29  1   
 52  25  49  1   
 53  25  50  1   
 54  28  51  1   
 55  28  52  1   
 56  28  53  1   
 57  29  54  1   
 58  29  55  1   
@<TRIPOS>SUBSTRUCTURE
  1 ****   7 GROUP 4 **** **** 0

# MOE 2024.06 (io_trps.svl 2023.06)
