@<TRIPOS>MOLECULE
1-Methyl-7-m-tolyloxymethyl-6,7-dihydro-1H-oxazolo[2,3-f]purine-2,4-dione
40 43 1 0 0 
SMALL
USER_CHARGES


@<TRIPOS>ATOM
  1 O        1.2420    -0.1640    -1.0340 O.2   1 <1>  -0.5700 
  2 C        2.1550     0.5950    -0.7780 C.2   1 <1>   0.6900 
  3 N        3.2930     0.1830    -0.1080 N.am  1 <1>  -0.4230 
  4 N        2.0370     1.8960    -1.1760 N.am  1 <1>  -0.4900 
  5 C        4.2950     1.1200     0.1420 C.2   1 <1>   0.2900 
  6 C        3.4870    -1.2130     0.3590 C.3   1 <1>   0.0600 
  7 C        2.9920     2.8370    -0.9510 C.2   1 <1>   0.7150 
  8 N        5.4660     0.9050     0.7690 N.2   1 <1>  -0.5650 
  9 C        4.1460     2.4070    -0.2650 C.2   1 <1>  -0.2370 
 10 O        2.8250     3.9760    -1.3390 O.2   1 <1>  -0.5700 
 11 C        5.9960     2.0880     0.7250 C.2   1 <1>   0.2490 
 12 N        5.2780     3.0300     0.1320 N.pl3 1 <1>   0.0480 
 13 O        7.1760     2.5260     1.1670 O.3   1 <1>  -0.3430 
 14 C        5.9810     4.2980     0.1380 C.3   1 <1>   0.0960 
 15 C        7.3360     3.8850     0.7590 C.3   1 <1>   0.2000 
 16 C        8.4880     3.9880    -0.2520 C.3   1 <1>   0.1200 
 17 O        9.7240     3.7340     0.3840 O.3   1 <1>  -0.3630 
 18 C       10.4580     2.6360     0.0760 C.ar  1 <1>   0.0820 
 19 C       11.8370     2.7650     0.1190 C.ar  1 <1>  -0.1500 
 20 C        9.8940     1.4120    -0.2670 C.ar  1 <1>  -0.1500 
 21 C       12.6590     1.6950    -0.1950 C.ar  1 <1>  -0.1430 
 22 C       10.7110     0.3400    -0.5800 C.ar  1 <1>  -0.1500 
 23 C       12.0880     0.4820    -0.5460 C.ar  1 <1>  -0.1500 
 24 C       14.1690     1.8400    -0.1510 C.3   1 <1>  -0.0970 
 25 H        1.1930     2.1660    -1.6650 H     1 <1>   0.3700 
 26 H        2.6390    -1.8250     0.1060 H     1 <1>   0.0800 
 27 H        3.6170    -1.2170     1.4270 H     1 <1>   0.0800 
 28 H        4.3680    -1.6240    -0.1010 H     1 <1>   0.0800 
 29 H        5.4610     5.0030     0.7610 H     1 <1>   0.0800 
 30 H        6.0770     4.6800    -0.8620 H     1 <1>   0.0800 
 31 H        7.5530     4.4800     1.6280 H     1 <1>   0.0800 
 32 H        8.5430     4.9910    -0.6340 H     1 <1>   0.0800 
 33 H        8.3500     3.3190    -1.0830 H     1 <1>   0.0800 
 34 H       12.2580     3.7130     0.3990 H     1 <1>   0.1500 
 35 H        8.8300     1.2750    -0.2820 H     1 <1>   0.1500 
 36 H       10.2740    -0.6070    -0.8450 H     1 <1>   0.1500 
 37 H       12.7140    -0.3580    -0.7900 H     1 <1>   0.1500 
 38 H       14.4530     2.8770    -0.1680 H     1 <1>   0.0800 
 39 H       14.6130     1.3520    -0.9990 H     1 <1>   0.0800 
 40 H       14.5510     1.3920     0.7490 H     1 <1>   0.0800 
@<TRIPOS>BOND
  1   1   2  2   
  2   2   3  am  
  3   2   4  am  
  4   3   5  1   
  5   3   6  1   
  6   4   7  am  
  7   4  25  1   
  8   5   8  1   
  9   5   9  2   
 10   6  26  1   
 11   6  27  1   
 12   6  28  1   
 13   7   9  1   
 14   7  10  2   
 15   8  11  2   
 16   9  12  1   
 17  11  12  1   
 18  11  13  1   
 19  12  14  1   
 20  13  15  1   
 21  14  15  1   
 22  14  29  1   
 23  14  30  1   
 24  15  16  1   
 25  15  31  1   
 26  16  17  1   
 27  16  32  1   
 28  16  33  1   
 29  17  18  1   
 30  18  19  ar  
 31  18  20  ar  
 32  19  21  ar  
 33  19  34  1   
 34  20  22  ar  
 35  20  35  1   
 36  21  23  ar  
 37  21  24  1   
 38  22  23  ar  
 39  22  36  1   
 40  23  37  1   
 41  24  38  1   
 42  24  39  1   
 43  24  40  1   
@<TRIPOS>SUBSTRUCTURE
  1 ****  11 GROUP 4 **** **** 0

# MOE 2024.06 (io_trps.svl 2023.06)
