@<TRIPOS>MOLECULE
7-[3-(3,4-Dimethyl-phenoxy)-2-hydroxy-propyl]-3-methyl-8-piperidin-1-yl-3,7-dihy
61 64 1 0 0 
SMALL
USER_CHARGES


@<TRIPOS>ATOM
  1 O        1.1560     2.3670    -1.4210 O.2   1 <1>  -0.5740 
  2 C        2.3390     2.3020    -1.1800 C.2   1 <1>   0.6870 
  3 N        2.9360     1.1460    -0.6980 N.am  1 <1>  -0.4400 
  4 N        3.1070     3.4090    -1.3970 N.am  1 <1>  -0.4940 
  5 C        4.2990     1.1850    -0.4440 C.2   1 <1>   0.4220 
  6 C        2.1330    -0.0860    -0.4460 C.3   1 <1>   0.0540 
  7 C        4.4500     3.4600    -1.1610 C.2   1 <1>   0.7000 
  8 N        5.0840     0.1820     0.0260 N.pl3 1 <1>  -0.7030 
  9 C        5.0730     2.2750    -0.6420 C.2   1 <1>   0.2720 
 10 O        5.0490     4.4920    -1.4100 O.2   1 <1>  -0.5740 
 11 C        6.3380     0.6280     0.1440 C.cat 1 <1>   1.0690 
 12 N        6.3800     1.9100    -0.2600 N.pl3 1 <1>  -0.7670 
 13 N        7.3380    -0.1660     0.6010 N.pl3 1 <1>  -0.5950 
 14 C        7.5170     2.8750    -0.3910 C.3   1 <1>   0.3490 
 15 C        7.2870    -1.6580     0.5190 C.3   1 <1>   0.1620 
 16 C        8.6290     0.2930     1.1930 C.3   1 <1>   0.1620 
 17 C        7.6180     3.8380     0.8190 C.3   1 <1>   0.1940 
 18 C        8.4170    -2.1510    -0.3940 C.3   1 <1>  -0.1660 
 19 C        9.7860    -0.1330     0.2850 C.3   1 <1>  -0.1660 
 20 O        6.4060     4.4850     1.0560 O.3   1 <1>  -0.6830 
 21 C        8.7240     4.8760     0.6230 C.3   1 <1>   0.1140 
 22 C        9.7910    -1.6540     0.0790 C.3   1 <1>  -0.1660 
 23 O        9.9090     4.1800     0.2990 O.3   1 <1>  -0.3670 
 24 C       11.0640     4.8420     0.0400 C.ar  1 <1>   0.0760 
 25 C       11.2000     6.2250     0.1140 C.ar  1 <1>  -0.1560 
 26 C       12.1570     4.0720    -0.3180 C.ar  1 <1>  -0.1560 
 27 C       12.4140     6.8320    -0.1690 C.ar  1 <1>  -0.1490 
 28 C       13.3690     4.6730    -0.6010 C.ar  1 <1>  -0.1560 
 29 C       13.5080     6.0500    -0.5300 C.ar  1 <1>  -0.1490 
 30 C       12.5230     8.3480    -0.0770 C.3   1 <1>  -0.1030 
 31 C       14.8600     6.6730    -0.8500 C.3   1 <1>  -0.1030 
 32 H        2.6370     4.2380    -1.7560 H     1 <1>   0.3650 
 33 H        1.1240     0.0320    -0.8020 H     1 <1>   0.0740 
 34 H        2.0970    -0.2880     0.6110 H     1 <1>   0.0740 
 35 H        2.5730    -0.9240    -0.9580 H     1 <1>   0.0740 
 36 H        4.7780    -0.7430     0.3050 H     1 <1>   0.4460 
 37 H        7.3950     3.4560    -1.2890 H     1 <1>   0.0740 
 38 H        8.4390     2.3380    -0.5110 H     1 <1>   0.0740 
 39 H        6.3490    -2.0050     0.1260 H     1 <1>   0.0740 
 40 H        7.4120    -2.0740     1.5050 H     1 <1>   0.0740 
 41 H        8.7530    -0.1710     2.1580 H     1 <1>   0.0740 
 42 H        8.6480     1.3510     1.3560 H     1 <1>   0.0740 
 43 H        7.8410     3.2810     1.7110 H     1 <1>   0.0740 
 44 H        8.2370    -1.8130    -1.3990 H     1 <1>   0.0740 
 45 H        8.4170    -3.2270    -0.4110 H     1 <1>   0.0740 
 46 H       10.7190     0.1680     0.7310 H     1 <1>   0.0740 
 47 H        9.7080     0.3630    -0.6670 H     1 <1>   0.0740 
 48 H        6.1350     5.0290     0.2800 H     1 <1>   0.3950 
 49 H        8.8910     5.4280     1.5310 H     1 <1>   0.0740 
 50 H        8.4920     5.5400    -0.1920 H     1 <1>   0.0740 
 51 H       10.5440    -1.9220    -0.6430 H     1 <1>   0.0740 
 52 H       10.0430    -2.1370     1.0080 H     1 <1>   0.0740 
 53 H       10.3700     6.8440     0.3930 H     1 <1>   0.1440 
 54 H       12.0600     3.0050    -0.3750 H     1 <1>   0.1440 
 55 H       14.2070     4.0580    -0.8780 H     1 <1>   0.1440 
 56 H       11.5900     8.7870     0.2240 H     1 <1>   0.0740 
 57 H       12.7950     8.7550    -1.0340 H     1 <1>   0.0740 
 58 H       13.2720     8.6200     0.6450 H     1 <1>   0.0740 
 59 H       15.2310     7.2070     0.0060 H     1 <1>   0.0740 
 60 H       14.7660     7.3540    -1.6760 H     1 <1>   0.0740 
 61 H       15.5790     5.9190    -1.1150 H     1 <1>   0.0740 
@<TRIPOS>BOND
  1   1   2  2   
  2   2   3  am  
  3   2   4  am  
  4   3   5  1   
  5   3   6  1   
  6   4   7  am  
  7   4  32  1   
  8   5   8  1   
  9   5   9  2   
 10   6  33  1   
 11   6  34  1   
 12   6  35  1   
 13   7   9  1   
 14   7  10  2   
 15   8  11  ar  
 16   8  36  1   
 17   9  12  1   
 18  11  12  ar  
 19  11  13  ar  
 20  12  14  1   
 21  13  15  1   
 22  13  16  1   
 23  14  17  1   
 24  14  37  1   
 25  14  38  1   
 26  15  18  1   
 27  15  39  1   
 28  15  40  1   
 29  16  19  1   
 30  16  41  1   
 31  16  42  1   
 32  17  20  1   
 33  17  21  1   
 34  17  43  1   
 35  18  22  1   
 36  18  44  1   
 37  18  45  1   
 38  19  22  1   
 39  19  46  1   
 40  19  47  1   
 41  20  48  1   
 42  21  23  1   
 43  21  49  1   
 44  21  50  1   
 45  22  51  1   
 46  22  52  1   
 47  23  24  1   
 48  24  25  ar  
 49  24  26  ar  
 50  25  27  ar  
 51  25  53  1   
 52  26  28  ar  
 53  26  54  1   
 54  27  29  ar  
 55  27  30  1   
 56  28  29  ar  
 57  28  55  1   
 58  29  31  1   
 59  30  56  1   
 60  30  57  1   
 61  30  58  1   
 62  31  59  1   
 63  31  60  1   
 64  31  61  1   
@<TRIPOS>SUBSTRUCTURE
  1 ****  14 GROUP 4 **** **** 0

# MOE 2024.06 (io_trps.svl 2023.06)
