@<TRIPOS>MOLECULE
8-(5-Chloro-2-methoxy-phenyl)-3-ethyl-1-methyl-7,8-dihydro-1H,6H-imidazo[2,1-f]p
45 48 1 0 0 
SMALL
USER_CHARGES


@<TRIPOS>ATOM
  1 CL       4.2920     0.3570     3.7220 Cl    1 <1>  -0.1850 
  2 C        3.7250     1.0660     2.2330 C.ar  1 <1>   0.1690 
  3 C        3.0440     2.2650     2.2780 C.ar  1 <1>  -0.1580 
  4 C        3.9640     0.4180     1.0390 C.ar  1 <1>  -0.1580 
  5 C        2.5820     2.8520     1.1070 C.ar  1 <1>   0.3040 
  6 C        3.5110     0.9850    -0.1390 C.ar  1 <1>  -0.1580 
  7 N        1.8900     4.0820     1.1890 N.pl3 1 <1>  -0.5800 
  8 C        2.8250     2.1980    -0.1160 C.ar  1 <1>   0.0740 
  9 C        0.7980     4.4800     0.5250 C.cat 1 <1>   1.0690 
 10 C        2.3340     5.2200     2.0600 C.3   1 <1>   0.1590 
 11 O        2.3790     2.7800    -1.2690 O.3   1 <1>  -0.3690 
 12 N       -0.0110     3.9440    -0.3790 N.pl3 1 <1>  -0.7040 
 13 N        0.4130     5.6970     0.8220 N.pl3 1 <1>  -0.7680 
 14 C        1.3050     6.3450     1.7930 C.3   1 <1>   0.3470 
 15 C        2.9400     2.4340    -2.5210 C.3   1 <1>   0.0310 
 16 C       -0.9560     4.8850    -0.6840 C.2   1 <1>   0.4200 
 17 C       -0.7170     5.9950     0.0530 C.2   1 <1>   0.2700 
 18 N       -1.9910     4.7900    -1.5920 N.am  1 <1>  -0.4420 
 19 C       -1.5650     7.1350    -0.0980 C.2   1 <1>   0.6990 
 20 C       -2.8130     5.8980    -1.7680 C.2   1 <1>   0.6860 
 21 C       -2.2140     3.5410    -2.3780 C.3   1 <1>   0.0510 
 22 O       -1.3690     8.1480     0.5540 O.2   1 <1>  -0.5750 
 23 N       -2.6080     7.0500    -1.0100 N.am  1 <1>  -0.4260 
 24 O       -3.7050     5.8570    -2.5900 O.2   1 <1>  -0.5750 
 25 C       -3.5380     8.2060    -1.1680 C.3   1 <1>   0.1320 
 26 C       -4.7000     8.0730    -0.1840 C.3   1 <1>  -0.2480 
 27 H        2.8780     2.7210     3.2350 H     1 <1>   0.1420 
 28 H        4.4970    -0.5180     1.0360 H     1 <1>   0.1420 
 29 H        3.7050     0.4590    -1.0570 H     1 <1>   0.1420 
 30 H        3.3270     5.5370     1.7890 H     1 <1>   0.0710 
 31 H        2.3180     4.9390     3.0990 H     1 <1>   0.0710 
 32 H        0.1900     3.0530    -0.8300 H     1 <1>   0.4440 
 33 H        1.7730     7.2160     1.3640 H     1 <1>   0.0710 
 34 H        0.7700     6.6160     2.6870 H     1 <1>   0.0710 
 35 H        2.5760     3.1270    -3.2590 H     1 <1>   0.0710 
 36 H        2.6360     1.4360    -2.7830 H     1 <1>   0.0710 
 37 H        4.0130     2.5020    -2.4590 H     1 <1>   0.0710 
 38 H       -1.9610     2.6760    -1.7920 H     1 <1>   0.0710 
 39 H       -1.6100     3.5620    -3.2690 H     1 <1>   0.0710 
 40 H       -3.2490     3.4580    -2.6660 H     1 <1>   0.0710 
 41 H       -3.9170     8.2420    -2.1750 H     1 <1>   0.0710 
 42 H       -3.0130     9.1300    -0.9890 H     1 <1>   0.0710 
 43 H       -5.2510     7.1690    -0.3730 H     1 <1>   0.0710 
 44 H       -5.3680     8.9070    -0.3060 H     1 <1>   0.0710 
 45 H       -4.3410     8.0750     0.8300 H     1 <1>   0.0710 
@<TRIPOS>BOND
  1   1   2  1   
  2   2   3  ar  
  3   2   4  ar  
  4   3   5  ar  
  5   3  27  1   
  6   4   6  ar  
  7   4  28  1   
  8   5   7  1   
  9   5   8  ar  
 10   6   8  ar  
 11   6  29  1   
 12   7   9  ar  
 13   7  10  1   
 14   8  11  1   
 15   9  12  ar  
 16   9  13  ar  
 17  10  14  1   
 18  10  30  1   
 19  10  31  1   
 20  11  15  1   
 21  12  16  1   
 22  12  32  1   
 23  13  14  1   
 24  13  17  1   
 25  14  33  1   
 26  14  34  1   
 27  15  35  1   
 28  15  36  1   
 29  15  37  1   
 30  16  17  2   
 31  16  18  1   
 32  17  19  1   
 33  18  20  am  
 34  18  21  1   
 35  19  22  2   
 36  19  23  am  
 37  20  23  am  
 38  20  24  2   
 39  21  38  1   
 40  21  39  1   
 41  21  40  1   
 42  23  25  1   
 43  25  26  1   
 44  25  41  1   
 45  25  42  1   
 46  26  43  1   
 47  26  44  1   
 48  26  45  1   
@<TRIPOS>SUBSTRUCTURE
  1 ****   9 GROUP 4 **** **** 0

# MOE 2024.06 (io_trps.svl 2023.06)
