@<TRIPOS>MOLECULE
1-p-Tolyl-4-(3,4,5-trimethoxy-phenyl)-4,7-dihydro-1H,3H-furo[3,4-b]pyridine-2,5-
53 56 1 0 0 
SMALL
USER_CHARGES


@<TRIPOS>ATOM
  1 O       -2.2880     0.0340     2.6590 O.2   1 <1>  -0.5700 
  2 C       -2.6300     0.5510     1.6250 C.2   1 <1>   0.5690 
  3 N       -2.9010    -0.1620     0.4650 N.am  1 <1>  -0.2860 
  4 C       -2.7540     2.0700     1.5890 C.3   1 <1>  -0.0990 
  5 C       -2.4890    -1.4980     0.3030 C.ar  1 <1>   0.1170 
  6 C       -3.6900     0.4400    -0.5050 C.2   1 <1>  -0.0290 
  7 C       -3.9510     2.5850     0.7570 C.3   1 <1>   0.2020 
  8 C       -1.4330    -1.8080    -0.5450 C.ar  1 <1>  -0.1500 
  9 C       -3.1440    -2.5290     0.9630 C.ar  1 <1>  -0.1500 
 10 C       -4.2030     1.6670    -0.4250 C.2   1 <1>  -0.1240 
 11 C       -4.1570    -0.1880    -1.8050 C.3   1 <1>   0.2580 
 12 C       -3.6910     4.0220     0.3140 C.ar  1 <1>  -0.1440 
 13 C       -1.0490    -3.1230    -0.7400 C.ar  1 <1>  -0.1500 
 14 C       -2.7610    -3.8440     0.7690 C.ar  1 <1>  -0.1500 
 15 C       -5.0130     1.9050    -1.5600 C.2   1 <1>   0.7060 
 16 O       -4.9690     0.8410    -2.3660 O.3   1 <1>  -0.4300 
 17 C       -4.4230     5.0650     0.8610 C.ar  1 <1>  -0.1500 
 18 C       -2.7290     4.3090    -0.6450 C.ar  1 <1>  -0.1500 
 19 C       -1.7150    -4.1490    -0.0870 C.ar  1 <1>  -0.1440 
 20 O       -5.7010     2.8630    -1.8260 O.2   1 <1>  -0.5700 
 21 C       -4.1980     6.3720     0.4630 C.ar  1 <1>   0.0830 
 22 C       -2.4890     5.6100    -1.0540 C.ar  1 <1>   0.0830 
 23 C       -1.2930    -5.5920    -0.2960 C.3   1 <1>  -0.0970 
 24 O       -4.9640     7.3340     1.0340 O.3   1 <1>  -0.3630 
 25 C       -3.2110     6.6620    -0.4820 C.ar  1 <1>   0.0830 
 26 O       -1.5290     5.7730    -2.0030 O.3   1 <1>  -0.3630 
 27 C       -5.8830     7.9810     0.1820 C.3   1 <1>   0.0400 
 28 O       -2.9420     7.9540    -0.8180 O.3   1 <1>  -0.3630 
 29 C       -1.8310     6.5670    -3.1310 C.3   1 <1>   0.0400 
 30 C       -2.1690     8.6640     0.1210 C.3   1 <1>   0.0400 
 31 H       -1.8370     2.4430     1.1740 H     1 <1>   0.0800 
 32 H       -2.8290     2.4480     2.5920 H     1 <1>   0.0800 
 33 H       -4.8330     2.5560     1.3730 H     1 <1>   0.0800 
 34 H       -0.9080    -1.0180    -1.0500 H     1 <1>   0.1500 
 35 H       -3.9510    -2.2980     1.6350 H     1 <1>   0.1500 
 36 H       -4.7610    -1.0630    -1.6400 H     1 <1>   0.0800 
 37 H       -3.3420    -0.3980    -2.4750 H     1 <1>   0.0800 
 38 H       -0.2280    -3.3470    -1.3980 H     1 <1>   0.1500 
 39 H       -3.2780    -4.6300     1.2910 H     1 <1>   0.1500 
 40 H       -5.1820     4.8810     1.6000 H     1 <1>   0.1500 
 41 H       -2.1500     3.5240    -1.0960 H     1 <1>   0.1500 
 42 H       -0.5540    -5.8630     0.4370 H     1 <1>   0.0800 
 43 H       -0.8730    -5.7250    -1.2770 H     1 <1>   0.0800 
 44 H       -2.1380    -6.2490    -0.1970 H     1 <1>   0.0800 
 45 H       -6.5090     8.6170     0.7810 H     1 <1>   0.0800 
 46 H       -6.4810     7.2350    -0.3140 H     1 <1>   0.0800 
 47 H       -5.3470     8.5690    -0.5400 H     1 <1>   0.0800 
 48 H       -1.1780     6.2730    -3.9320 H     1 <1>   0.0800 
 49 H       -1.6650     7.6000    -2.8880 H     1 <1>   0.0800 
 50 H       -2.8570     6.4050    -3.4130 H     1 <1>   0.0800 
 51 H       -1.9950     9.6530    -0.2630 H     1 <1>   0.0800 
 52 H       -1.2340     8.1500     0.2590 H     1 <1>   0.0800 
 53 H       -2.7090     8.7180     1.0500 H     1 <1>   0.0800 
@<TRIPOS>BOND
  1   1   2  2   
  2   2   3  am  
  3   2   4  1   
  4   3   5  1   
  5   3   6  1   
  6   4   7  1   
  7   4  31  1   
  8   4  32  1   
  9   5   8  ar  
 10   5   9  ar  
 11   6  10  2   
 12   6  11  1   
 13   7  10  1   
 14   7  12  1   
 15   7  33  1   
 16   8  13  ar  
 17   8  34  1   
 18   9  14  ar  
 19   9  35  1   
 20  10  15  1   
 21  11  16  1   
 22  11  36  1   
 23  11  37  1   
 24  12  17  ar  
 25  12  18  ar  
 26  13  19  ar  
 27  13  38  1   
 28  14  19  ar  
 29  14  39  1   
 30  15  16  1   
 31  15  20  2   
 32  17  21  ar  
 33  17  40  1   
 34  18  22  ar  
 35  18  41  1   
 36  19  23  1   
 37  21  24  1   
 38  21  25  ar  
 39  22  25  ar  
 40  22  26  1   
 41  23  42  1   
 42  23  43  1   
 43  23  44  1   
 44  24  27  1   
 45  25  28  1   
 46  26  29  1   
 47  27  45  1   
 48  27  46  1   
 49  27  47  1   
 50  28  30  1   
 51  29  48  1   
 52  29  49  1   
 53  29  50  1   
 54  30  51  1   
 55  30  52  1   
 56  30  53  1   
@<TRIPOS>SUBSTRUCTURE
  1 ****  10 GROUP 4 **** **** 0

# MOE 2024.06 (io_trps.svl 2023.06)
