@<TRIPOS>MOLECULE
N-(1-Acetyl-piperidin-4-yl)-N-benzo[1,3]dioxol-5-yl-4-fluoro-benzamide
49 52 1 0 0 
SMALL
USER_CHARGES


@<TRIPOS>ATOM
  1 F       -0.9240    -0.0610     1.3470 F     1 <1>  -0.1900 
  2 C       -1.9110     0.7810     1.2250 C.ar  1 <1>   0.1900 
  3 C       -2.1320     1.3810     0.0010 C.ar  1 <1>  -0.1500 
  4 C       -2.7080     1.0430     2.3220 C.ar  1 <1>  -0.1500 
  5 C       -3.1820     2.2750    -0.1200 C.ar  1 <1>  -0.1500 
  6 C       -3.7530     1.9400     2.1830 C.ar  1 <1>  -0.1500 
  7 C       -4.0080     2.5830     0.9670 C.ar  1 <1>   0.0860 
  8 C       -5.1070     3.5280     0.8590 C.2   1 <1>   0.5440 
  9 O       -6.1950     3.1990     1.2920 O.2   1 <1>  -0.5700 
 10 N       -4.9280     4.7900     0.3000 N.am  1 <1>  -0.4770 
 11 C       -3.6500     5.3270     0.0690 C.ar  1 <1>   0.1170 
 12 C       -6.0580     5.7360     0.0420 C.3   1 <1>   0.2200 
 13 C       -3.2330     5.6110    -1.2310 C.ar  1 <1>  -0.1500 
 14 C       -2.7880     5.5780     1.1410 C.ar  1 <1>  -0.1500 
 15 C       -6.6810     6.2590     1.3410 C.3   1 <1>  -0.1600 
 16 C       -7.1210     5.1470    -0.8940 C.3   1 <1>  -0.1600 
 17 C       -1.9680     6.1290    -1.4140 C.ar  1 <1>   0.0830 
 18 C       -1.5180     6.1000     0.9370 C.ar  1 <1>  -0.1500 
 19 C       -7.7710     7.2880     1.0300 C.3   1 <1>   0.1400 
 20 C       -8.2070     6.1860    -1.1830 C.3   1 <1>   0.1400 
 21 O       -1.3700     6.4670    -2.5610 O.3   1 <1>  -0.3620 
 22 C       -1.1330     6.3670    -0.3620 C.ar  1 <1>   0.0830 
 23 N       -8.7750     6.6950     0.1000 N.am  1 <1>  -0.6600 
 24 C       -0.0710     6.9490    -2.2190 C.3   1 <1>   0.4000 
 25 O        0.0300     6.8650    -0.7980 O.3   1 <1>  -0.3620 
 26 C      -10.1010     6.6350     0.4500 C.2   1 <1>   0.5690 
 27 O      -10.5240     7.1340     1.4650 O.2   1 <1>  -0.5700 
 28 C      -11.1030     5.9340    -0.4380 C.3   1 <1>  -0.1790 
 29 H       -1.4940     1.1510    -0.8340 H     1 <1>   0.1500 
 30 H       -2.5130     0.5520     3.2590 H     1 <1>   0.1500 
 31 H       -3.3680     2.7430    -1.0700 H     1 <1>   0.1500 
 32 H       -4.3910     2.1520     3.0240 H     1 <1>   0.1500 
 33 H       -5.6480     6.5940    -0.4640 H     1 <1>   0.0800 
 34 H       -3.8710     5.4290    -2.0740 H     1 <1>   0.1500 
 35 H       -3.1180     5.3610     2.1410 H     1 <1>   0.1500 
 36 H       -5.9230     6.7200     1.9470 H     1 <1>   0.0800 
 37 H       -7.1260     5.4570     1.9020 H     1 <1>   0.0800 
 38 H       -7.5910     4.2890    -0.4490 H     1 <1>   0.0800 
 39 H       -6.6640     4.8450    -1.8180 H     1 <1>   0.0800 
 40 H       -0.8450     6.2940     1.7530 H     1 <1>   0.1500 
 41 H       -7.3390     8.1590     0.5700 H     1 <1>   0.0800 
 42 H       -8.2380     7.5970     1.9500 H     1 <1>   0.0800 
 43 H       -8.9670     5.7430    -1.8010 H     1 <1>   0.0800 
 44 H       -7.7840     7.0140    -1.7250 H     1 <1>   0.0800 
 45 H        0.0270     7.9740    -2.5280 H     1 <1>   0.0800 
 46 H        0.6770     6.3230    -2.6710 H     1 <1>   0.0800 
 47 H      -10.8050     4.9140    -0.5890 H     1 <1>   0.0800 
 48 H      -11.1750     6.4420    -1.3800 H     1 <1>   0.0800 
 49 H      -12.0690     5.9420     0.0330 H     1 <1>   0.0800 
@<TRIPOS>BOND
  1   1   2  1   
  2   2   3  ar  
  3   2   4  ar  
  4   3   5  ar  
  5   3  29  1   
  6   4   6  ar  
  7   4  30  1   
  8   5   7  ar  
  9   5  31  1   
 10   6   7  ar  
 11   6  32  1   
 12   7   8  1   
 13   8   9  2   
 14   8  10  am  
 15  10  11  1   
 16  10  12  1   
 17  11  13  ar  
 18  11  14  ar  
 19  12  15  1   
 20  12  16  1   
 21  12  33  1   
 22  13  17  ar  
 23  13  34  1   
 24  14  18  ar  
 25  14  35  1   
 26  15  19  1   
 27  15  36  1   
 28  15  37  1   
 29  16  20  1   
 30  16  38  1   
 31  16  39  1   
 32  17  21  1   
 33  17  22  ar  
 34  18  22  ar  
 35  18  40  1   
 36  19  23  1   
 37  19  41  1   
 38  19  42  1   
 39  20  23  1   
 40  20  43  1   
 41  20  44  1   
 42  21  24  1   
 43  22  25  1   
 44  23  26  am  
 45  24  25  1   
 46  24  45  1   
 47  24  46  1   
 48  26  27  2   
 49  26  28  1   
 50  28  47  1   
 51  28  48  1   
 52  28  49  1   
@<TRIPOS>SUBSTRUCTURE
  1 ****  10 GROUP 4 **** **** 0

# MOE 2024.06 (io_trps.svl 2023.06)
