@<TRIPOS>MOLECULE
Cyclohexanecarboxylic acid allyl-(3-p-tolyl-[1,2,4]oxadiazol-5-ylmethyl)-amide
50 52 1 0 0 
SMALL
USER_CHARGES


@<TRIPOS>ATOM
  1 O        0.1780     0.9800    -0.9170 O.2   1 <1>  -0.5700 
  2 C        0.4460     2.1260    -0.6400 C.2   1 <1>   0.5690 
  3 N        1.7150     2.6100    -0.8370 N.am  1 <1>  -0.6600 
  4 C       -0.6830     3.0130    -0.0890 C.3   1 <1>  -0.0190 
  5 C        2.8010     1.6910    -1.3200 C.3   1 <1>   0.3200 
  6 C        2.1040     4.0390    -0.7210 C.3   1 <1>   0.2780 
  7 C       -1.5740     2.2630     0.9230 C.3   1 <1>  -0.1600 
  8 C       -1.5430     3.5790    -1.2360 C.3   1 <1>  -0.1600 
  9 C        4.0560     1.7340    -0.4590 C.2   1 <1>   0.2980 
 10 C        2.5880     4.3210     0.6880 C.2   1 <1>  -0.2880 
 11 C       -2.6980     3.1610     1.4590 C.3   1 <1>  -0.1600 
 12 C       -2.6700     4.4780    -0.7060 C.3   1 <1>  -0.1600 
 13 O        4.0000     1.2500     0.7540 O.3   1 <1>  -0.0190 
 14 N        5.1850     2.2000    -0.8110 N.2   1 <1>  -0.5650 
 15 C        3.7910     4.8100     1.0070 C.2   1 <1>  -0.3000 
 16 C       -3.5420     3.7310     0.3120 C.3   1 <1>  -0.1600 
 17 N        5.1970     1.4270     1.2190 N.2   1 <1>  -0.4100 
 18 C        5.8990     1.9940     0.3020 C.2   1 <1>   0.4620 
 19 C        7.2950     2.3820     0.4210 C.ar  1 <1>   0.0540 
 20 C        8.0020     2.1890     1.6090 C.ar  1 <1>  -0.1500 
 21 C        7.9900     2.9650    -0.6400 C.ar  1 <1>  -0.1500 
 22 C        9.3290     2.5590     1.7330 C.ar  1 <1>  -0.1500 
 23 C        9.3170     3.3370    -0.5220 C.ar  1 <1>  -0.1500 
 24 C        9.9960     3.1370     0.6680 C.ar  1 <1>  -0.1440 
 25 C       11.4530     3.5430     0.7990 C.3   1 <1>  -0.0970 
 26 H       -0.2520     3.8370     0.4440 H     1 <1>   0.0800 
 27 H        3.0640     1.9690    -2.3250 H     1 <1>   0.0800 
 28 H        2.4580     0.6730    -1.3480 H     1 <1>   0.0800 
 29 H        1.2690     4.6760    -0.9550 H     1 <1>   0.0800 
 30 H        2.8870     4.2620    -1.4280 H     1 <1>   0.0800 
 31 H       -0.9700     1.9120     1.7420 H     1 <1>   0.0800 
 32 H       -2.0100     1.4000     0.4470 H     1 <1>   0.0800 
 33 H       -1.9710     2.7610    -1.7900 H     1 <1>   0.0800 
 34 H       -0.9250     4.1430    -1.9130 H     1 <1>   0.0800 
 35 H        1.8550     4.0780     1.4370 H     1 <1>   0.1500 
 36 H       -2.2710     3.9710     2.0260 H     1 <1>   0.0800 
 37 H       -3.3280     2.5910     2.1200 H     1 <1>   0.0800 
 38 H       -3.2820     4.8090    -1.5280 H     1 <1>   0.0800 
 39 H       -2.2450     5.3490    -0.2390 H     1 <1>   0.0800 
 40 H        4.5580     5.0570     0.2930 H     1 <1>   0.1500 
 41 H        4.1140     4.9940     2.0170 H     1 <1>   0.1500 
 42 H       -4.2860     4.4000     0.7090 H     1 <1>   0.0800 
 43 H       -4.0560     2.9250    -0.1840 H     1 <1>   0.0800 
 44 H        7.5040     1.7420     2.4520 H     1 <1>   0.1500 
 45 H        7.4850     3.1300    -1.5750 H     1 <1>   0.1500 
 46 H        9.8410     2.3930     2.6650 H     1 <1>   0.1500 
 47 H        9.8210     3.7820    -1.3620 H     1 <1>   0.1500 
 48 H       11.6790     3.8090     1.8160 H     1 <1>   0.0800 
 49 H       11.6650     4.3900     0.1720 H     1 <1>   0.0800 
 50 H       12.0850     2.7250     0.5050 H     1 <1>   0.0800 
@<TRIPOS>BOND
  1   1   2  2   
  2   2   3  am  
  3   2   4  1   
  4   3   5  1   
  5   3   6  1   
  6   4   7  1   
  7   4   8  1   
  8   4  26  1   
  9   5   9  1   
 10   5  27  1   
 11   5  28  1   
 12   6  10  1   
 13   6  29  1   
 14   6  30  1   
 15   7  11  1   
 16   7  31  1   
 17   7  32  1   
 18   8  12  1   
 19   8  33  1   
 20   8  34  1   
 21   9  13  1   
 22   9  14  2   
 23  10  15  2   
 24  10  35  1   
 25  11  16  1   
 26  11  36  1   
 27  11  37  1   
 28  12  16  1   
 29  12  38  1   
 30  12  39  1   
 31  13  17  1   
 32  14  18  1   
 33  15  40  1   
 34  15  41  1   
 35  16  42  1   
 36  16  43  1   
 37  17  18  2   
 38  18  19  1   
 39  19  20  ar  
 40  19  21  ar  
 41  20  22  ar  
 42  20  44  1   
 43  21  23  ar  
 44  21  45  1   
 45  22  24  ar  
 46  22  46  1   
 47  23  24  ar  
 48  23  47  1   
 49  24  25  1   
 50  25  48  1   
 51  25  49  1   
 52  25  50  1   
@<TRIPOS>SUBSTRUCTURE
  1 ****   9 GROUP 4 **** **** 0

# MOE 2024.06 (io_trps.svl 2023.06)
