@<TRIPOS>MOLECULE
4-(4-Hydroxy-3-methoxy-phenyl)-2,7-dimethyl-5-oxo-1,4,5,6,7,8-hexahydro-quinolin
56 59 1 0 0 
SMALL
USER_CHARGES


@<TRIPOS>ATOM
  1 O        0.5270    -0.4380    -2.0400 O.2   1 <1>  -0.5700 
  2 C        0.4310    -1.4450    -1.3790 C.2   1 <1>   0.4950 
  3 C        1.5290    -2.1160    -0.7680 C.2   1 <1>  -0.1240 
  4 C       -0.9530    -2.0580    -1.2450 C.3   1 <1>  -0.0990 
  5 C        1.4150    -3.3020    -0.1210 C.2   1 <1>  -0.0380 
  6 C        2.8950    -1.4360    -0.8740 C.3   1 <1>   0.3400 
  7 C       -1.0800    -2.9510     0.0030 C.3   1 <1>  -0.0800 
  8 N        2.5110    -3.9670     0.3740 N.pl3 1 <1>  -0.6000 
  9 C        0.0660    -3.9780     0.0690 C.3   1 <1>  -0.0220 
 10 C        4.0570    -2.3280    -0.4230 C.2   1 <1>  -0.1240 
 11 C        2.9070    -0.1780    -0.0020 C.ar  1 <1>  -0.1440 
 12 C       -2.4470    -3.6470     0.0410 C.3   1 <1>  -0.2400 
 13 C        3.8020    -3.5270     0.1680 C.2   1 <1>  -0.0380 
 14 C        5.3320    -1.7290    -0.6700 C.2   1 <1>   0.6160 
 15 C        3.1580     1.0640    -0.5670 C.ar  1 <1>  -0.1500 
 16 C        2.6810    -0.2710     1.3650 C.ar  1 <1>  -0.1500 
 17 C        4.8580    -4.5150     0.6410 C.3   1 <1>  -0.1020 
 18 O        5.5870    -1.2350    -1.7530 O.2   1 <1>  -0.5700 
 19 N        6.2550    -1.6960     0.3390 N.am  1 <1>  -0.5470 
 20 C        3.1910     2.2140     0.2190 C.ar  1 <1>   0.0820 
 21 C        2.7110     0.8610     2.1600 C.ar  1 <1>  -0.1500 
 22 C        7.5440    -1.2280     0.4500 C.ar  1 <1>   0.4270 
 23 O        3.4360     3.4530    -0.2980 O.3   1 <1>  -0.3620 
 24 C        2.9660     2.0980     1.5920 C.ar  1 <1>   0.0820 
 25 N        8.1130    -1.5900     1.5910 N.ar  1 <1>  -0.6200 
 26 C        8.1890    -0.4520    -0.5130 C.ar  1 <1>  -0.1500 
 27 C        3.5870     3.6510    -1.6850 C.3   1 <1>   0.0400 
 28 O        2.9930     3.1830     2.3950 O.3   1 <1>  -0.5330 
 29 C        9.3550    -1.1740     1.7790 C.ar  1 <1>   0.1600 
 30 C        9.4810    -0.0280    -0.3050 C.ar  1 <1>  -0.1500 
 31 C       10.0750    -0.4060     0.8810 C.ar  1 <1>  -0.1500 
 32 H       -1.1480    -2.6320    -2.1320 H     1 <1>   0.0800 
 33 H       -1.6770    -1.2650    -1.1960 H     1 <1>   0.0800 
 34 H        3.0480    -1.1720    -1.9070 H     1 <1>   0.0800 
 35 H       -1.0010    -2.3160     0.8710 H     1 <1>   0.0800 
 36 H        2.3730    -4.8720     0.8400 H     1 <1>   0.4000 
 37 H        0.0380    -4.4670     1.0270 H     1 <1>   0.0800 
 38 H       -0.0580    -4.7260    -0.6950 H     1 <1>   0.0800 
 39 H       -2.5710    -4.2930    -0.8100 H     1 <1>   0.0800 
 40 H       -3.2380    -2.9170     0.0340 H     1 <1>   0.0800 
 41 H       -2.5430    -4.2370     0.9360 H     1 <1>   0.0800 
 42 H        3.3280     1.1180    -1.6250 H     1 <1>   0.1500 
 43 H        2.4840    -1.2300     1.8130 H     1 <1>   0.1500 
 44 H        4.6150    -5.5020     0.2910 H     1 <1>   0.0800 
 45 H        4.8950    -4.5290     1.7150 H     1 <1>   0.0800 
 46 H        5.8330    -4.2750     0.2620 H     1 <1>   0.0800 
 47 H        5.9430    -2.1050     1.2140 H     1 <1>   0.3700 
 48 H        2.5360     0.7720     3.2160 H     1 <1>   0.1500 
 49 H        7.6840    -0.1780    -1.4180 H     1 <1>   0.1500 
 50 H        3.7330     4.7020    -1.8560 H     1 <1>   0.0800 
 51 H        2.6940     3.3180    -2.1830 H     1 <1>   0.0800 
 52 H        4.4480     3.1030    -2.0240 H     1 <1>   0.0800 
 53 H        2.8290     2.9680     3.3270 H     1 <1>   0.4500 
 54 H        9.8290    -1.4620     2.7020 H     1 <1>   0.1500 
 55 H       10.0020     0.5700    -1.0320 H     1 <1>   0.1500 
 56 H       11.0820    -0.1070     1.1080 H     1 <1>   0.1500 
@<TRIPOS>BOND
  1   1   2  2   
  2   2   3  1   
  3   2   4  1   
  4   3   5  2   
  5   3   6  1   
  6   4   7  1   
  7   4  32  1   
  8   4  33  1   
  9   5   8  1   
 10   5   9  1   
 11   6  10  1   
 12   6  11  1   
 13   6  34  1   
 14   7   9  1   
 15   7  12  1   
 16   7  35  1   
 17   8  13  1   
 18   8  36  1   
 19   9  37  1   
 20   9  38  1   
 21  10  13  2   
 22  10  14  1   
 23  11  15  ar  
 24  11  16  ar  
 25  12  39  1   
 26  12  40  1   
 27  12  41  1   
 28  13  17  1   
 29  14  18  2   
 30  14  19  am  
 31  15  20  ar  
 32  15  42  1   
 33  16  21  ar  
 34  16  43  1   
 35  17  44  1   
 36  17  45  1   
 37  17  46  1   
 38  19  22  1   
 39  19  47  1   
 40  20  23  1   
 41  20  24  ar  
 42  21  24  ar  
 43  21  48  1   
 44  22  25  ar  
 45  22  26  ar  
 46  23  27  1   
 47  24  28  1   
 48  25  29  ar  
 49  26  30  ar  
 50  26  49  1   
 51  27  50  1   
 52  27  51  1   
 53  27  52  1   
 54  28  53  1   
 55  29  31  ar  
 56  29  54  1   
 57  30  31  ar  
 58  30  55  1   
 59  31  56  1   
@<TRIPOS>SUBSTRUCTURE
  1 ****  11 GROUP 4 **** **** 0

# MOE 2024.06 (io_trps.svl 2023.06)
