@<TRIPOS>MOLECULE
6-Methoxy-4-(4-pyrimidin-2-yl-piperazin-1-ylmethyl)-chromen-2-one
47 50 1 0 0 
SMALL
USER_CHARGES


@<TRIPOS>ATOM
  1 O       -1.0510    -0.0950    -0.5190 O.2   1 <1>  -0.5700 
  2 C       -1.1760     1.1090    -0.5140 C.2   1 <1>   0.7060 
  3 O       -2.2460     1.6470     0.0730 O.3   1 <1>  -0.2330 
  4 C       -0.2070     1.9900    -1.0830 C.2   1 <1>  -0.1360 
  5 C       -2.4660     2.9820     0.1130 C.ar  1 <1>   0.0820 
  6 C       -0.3620     3.3340    -1.0600 C.2   1 <1>  -0.1670 
  7 C       -1.5580     3.8760    -0.4730 C.ar  1 <1>   0.0280 
  8 C       -3.6140     3.4380     0.7430 C.ar  1 <1>  -0.1500 
  9 C        0.6960     4.2730    -1.6110 C.3   1 <1>   0.4810 
 10 C       -1.8800     5.2360    -0.4410 C.ar  1 <1>  -0.1500 
 11 C       -3.8910     4.7900     0.7920 C.ar  1 <1>  -0.1500 
 12 N        1.2970     5.0180    -0.4730 N.4   1 <1>  -0.9590 
 13 C       -3.0170     5.6940     0.1910 C.ar  1 <1>   0.0830 
 14 C        2.1570     6.1660    -0.9560 C.3   1 <1>   0.3430 
 15 C        2.0610     4.1010     0.4620 C.3   1 <1>   0.3430 
 16 O       -3.2060     7.0370     0.1830 O.3   1 <1>  -0.3630 
 17 C        2.8330     6.9210     0.2070 C.3   1 <1>   0.2090 
 18 C        2.7510     4.8620     1.6140 C.3   1 <1>   0.2090 
 19 C       -4.3880     7.6100     0.7030 C.3   1 <1>   0.0400 
 20 N        3.5930     5.9540     1.0510 N.pl3 1 <1>  -0.8380 
 21 C        4.9150     5.6880     0.7820 C.ar  1 <1>   0.7200 
 22 N        5.6100     5.1080     1.7510 N.ar  1 <1>  -0.6200 
 23 N        5.3540     5.9980    -0.4370 N.ar  1 <1>  -0.6200 
 24 C        6.8740     4.8710     1.4930 C.ar  1 <1>   0.1600 
 25 C        6.6220     5.7490    -0.6670 C.ar  1 <1>   0.1600 
 26 C        7.4390     5.1810     0.2800 C.ar  1 <1>  -0.1500 
 27 H        0.6450     1.4960    -1.5130 H     1 <1>   0.1500 
 28 H       -4.2880     2.7290     1.1920 H     1 <1>   0.1500 
 29 H        0.2390     4.9570    -2.3090 H     1 <1>   0.0800 
 30 H        1.4580     3.7140    -2.1300 H     1 <1>   0.0800 
 31 H       -1.2630     5.9730    -0.9160 H     1 <1>   0.1500 
 32 H       -4.7840     5.1200     1.2910 H     1 <1>   0.1500 
 33 H        0.5220     5.4130     0.0760 H     1 <1>   0.4500 
 34 H        1.5620     6.8610    -1.5260 H     1 <1>   0.0800 
 35 H        2.9370     5.7910    -1.5990 H     1 <1>   0.0800 
 36 H        2.8260     3.5800    -0.0910 H     1 <1>   0.0800 
 37 H        1.3960     3.3650     0.8810 H     1 <1>   0.0800 
 38 H        2.0930     7.4190     0.8080 H     1 <1>   0.0800 
 39 H        3.4940     7.6780    -0.1820 H     1 <1>   0.0800 
 40 H        3.3490     4.1750     2.1880 H     1 <1>   0.0800 
 41 H        2.0150     5.2810     2.2780 H     1 <1>   0.0800 
 42 H       -4.3390     8.6740     0.5530 H     1 <1>   0.0800 
 43 H       -4.4510     7.3940     1.7550 H     1 <1>   0.0800 
 44 H       -5.2350     7.2080     0.1760 H     1 <1>   0.0800 
 45 H        7.4730     4.4200     2.2660 H     1 <1>   0.1500 
 46 H        7.0240     6.0040    -1.6340 H     1 <1>   0.1500 
 47 H        8.4760     4.9860     0.0810 H     1 <1>   0.1500 
@<TRIPOS>BOND
  1   1   2  2   
  2   2   3  1   
  3   2   4  1   
  4   3   5  1   
  5   4   6  2   
  6   4  27  1   
  7   5   7  ar  
  8   5   8  ar  
  9   6   7  1   
 10   6   9  1   
 11   7  10  ar  
 12   8  11  ar  
 13   8  28  1   
 14   9  12  1   
 15   9  29  1   
 16   9  30  1   
 17  10  13  ar  
 18  10  31  1   
 19  11  13  ar  
 20  11  32  1   
 21  12  14  1   
 22  12  15  1   
 23  12  33  1   
 24  13  16  1   
 25  14  17  1   
 26  14  34  1   
 27  14  35  1   
 28  15  18  1   
 29  15  36  1   
 30  15  37  1   
 31  16  19  1   
 32  17  20  1   
 33  17  38  1   
 34  17  39  1   
 35  18  20  1   
 36  18  40  1   
 37  18  41  1   
 38  19  42  1   
 39  19  43  1   
 40  19  44  1   
 41  20  21  1   
 42  21  22  ar  
 43  21  23  ar  
 44  22  24  ar  
 45  23  25  ar  
 46  24  26  ar  
 47  24  45  1   
 48  25  26  ar  
 49  25  46  1   
 50  26  47  1   
@<TRIPOS>SUBSTRUCTURE
  1 ****  12 GROUP 4 **** **** 0

# MOE 2024.06 (io_trps.svl 2023.06)
