@<TRIPOS>MOLECULE
2-(4-Chloro-benzylsulfanyl)-4,6-di-morpholin-4-yl-[1,3,5]triazine
49 52 1 0 0 
SMALL
USER_CHARGES


@<TRIPOS>ATOM
  1 CL       0.0700     0.0660    -0.5010 Cl    1 <1>  -0.1770 
  2 C        1.5640    -0.8240    -0.3540 C.ar  1 <1>   0.1770 
  3 C        2.0570    -1.1190     0.9030 C.ar  1 <1>  -0.1500 
  4 C        2.2320    -1.2200    -1.4970 C.ar  1 <1>  -0.1500 
  5 C        3.2420    -1.8260     1.0160 C.ar  1 <1>  -0.1500 
  6 C        3.4170    -1.9270    -1.3780 C.ar  1 <1>  -0.1500 
  7 C        3.9250    -2.2350    -0.1220 C.ar  1 <1>  -0.1430 
  8 C        5.2240    -3.0150     0.0060 C.3   1 <1>   0.2140 
  9 S        6.6190    -1.8100     0.0390 S.3   1 <1>  -0.3310 
 10 C        8.0700    -2.8330     0.1980 C.ar  1 <1>   0.7210 
 11 N        9.1880    -2.1840     0.2850 N.ar  1 <1>  -0.6200 
 12 N        7.8720    -4.1150     0.2110 N.ar  1 <1>  -0.6200 
 13 C       10.2300    -2.9700     0.4040 C.ar  1 <1>   0.7200 
 14 C        8.9860    -4.7980     0.3390 C.ar  1 <1>   0.7200 
 15 N       10.1820    -4.2780     0.4390 N.ar  1 <1>  -0.6200 
 16 N       11.4660    -2.3710     0.5020 N.pl3 1 <1>  -0.8380 
 17 N        8.8800    -6.1690     0.3680 N.pl3 1 <1>  -0.8380 
 18 C       12.7480    -3.1360     0.6220 C.3   1 <1>   0.2090 
 19 C       11.6630    -0.8880     0.5970 C.3   1 <1>   0.2090 
 20 C        9.9910    -7.0770     0.7950 C.3   1 <1>   0.2090 
 21 C        7.6980    -6.9180    -0.1600 C.3   1 <1>   0.2090 
 22 C       13.8310    -2.5380    -0.2930 C.3   1 <1>   0.1200 
 23 C       12.8140    -0.4280    -0.3150 C.3   1 <1>   0.1200 
 24 C       10.3050    -8.1000    -0.3090 C.3   1 <1>   0.1200 
 25 C        8.1410    -7.9600    -1.2040 C.3   1 <1>   0.1200 
 26 O       13.9810    -1.1630    -0.0680 O.3   1 <1>  -0.5600 
 27 O        9.1480    -8.7910    -0.6960 O.3   1 <1>  -0.5600 
 28 H        1.5190    -0.7960     1.7760 H     1 <1>   0.1500 
 29 H        1.8290    -0.9750    -2.4630 H     1 <1>   0.1500 
 30 H        3.6330    -2.0530     1.9930 H     1 <1>   0.1500 
 31 H        3.9450    -2.2330    -2.2650 H     1 <1>   0.1500 
 32 H        5.3810    -3.6670    -0.8350 H     1 <1>   0.0800 
 33 H        5.2630    -3.5780     0.9210 H     1 <1>   0.0800 
 34 H       12.6120    -4.1690     0.3580 H     1 <1>   0.0800 
 35 H       13.0860    -3.0970     1.6420 H     1 <1>   0.0800 
 36 H       11.8950    -0.6290     1.6150 H     1 <1>   0.0800 
 37 H       10.7730    -0.3540     0.3180 H     1 <1>   0.0800 
 38 H        9.6910    -7.6030     1.6850 H     1 <1>   0.0800 
 39 H       10.8840    -6.5260     1.0320 H     1 <1>   0.0800 
 40 H        6.9890    -6.2530    -0.6180 H     1 <1>   0.0800 
 41 H        7.2050    -7.4190     0.6530 H     1 <1>   0.0800 
 42 H       13.5740    -2.6910    -1.3260 H     1 <1>   0.0800 
 43 H       14.7790    -3.0070    -0.0990 H     1 <1>   0.0800 
 44 H       13.0350     0.6090    -0.1350 H     1 <1>   0.0800 
 45 H       12.5420    -0.5490    -1.3490 H     1 <1>   0.0800 
 46 H       11.0150    -8.8240     0.0480 H     1 <1>   0.0800 
 47 H       10.7170    -7.6050    -1.1710 H     1 <1>   0.0800 
 48 H        8.5140    -7.4690    -2.0860 H     1 <1>   0.0800 
 49 H        7.3100    -8.5830    -1.4810 H     1 <1>   0.0800 
@<TRIPOS>BOND
  1   1   2  1   
  2   2   3  ar  
  3   2   4  ar  
  4   3   5  ar  
  5   3  28  1   
  6   4   6  ar  
  7   4  29  1   
  8   5   7  ar  
  9   5  30  1   
 10   6   7  ar  
 11   6  31  1   
 12   7   8  1   
 13   8   9  1   
 14   8  32  1   
 15   8  33  1   
 16   9  10  1   
 17  10  11  ar  
 18  10  12  ar  
 19  11  13  ar  
 20  12  14  ar  
 21  13  15  ar  
 22  13  16  1   
 23  14  15  ar  
 24  14  17  1   
 25  16  18  1   
 26  16  19  1   
 27  17  20  1   
 28  17  21  1   
 29  18  22  1   
 30  18  34  1   
 31  18  35  1   
 32  19  23  1   
 33  19  36  1   
 34  19  37  1   
 35  20  24  1   
 36  20  38  1   
 37  20  39  1   
 38  21  25  1   
 39  21  40  1   
 40  21  41  1   
 41  22  26  1   
 42  22  42  1   
 43  22  43  1   
 44  23  26  1   
 45  23  44  1   
 46  23  45  1   
 47  24  27  1   
 48  24  46  1   
 49  24  47  1   
 50  25  27  1   
 51  25  48  1   
 52  25  49  1   
@<TRIPOS>SUBSTRUCTURE
  1 ****  10 GROUP 4 **** **** 0

# MOE 2024.06 (io_trps.svl 2023.06)
