@<TRIPOS>MOLECULE
7-Methyl-3-oxo-3,4-dihydro-2H-benzo[1,4]oxazine-6-sulfonic acid [2-(2-propyl-phe
52 54 1 0 0 
SMALL
USER_CHARGES


@<TRIPOS>ATOM
  1 S       -0.8100    -1.8680    -0.8970 S.o2  1 <1>   1.4470 
  2 O       -1.0880    -2.3040    -2.2470 O.2   1 <1>  -0.6500 
  3 O       -0.8280    -2.8350     0.1770 O.2   1 <1>  -0.6500 
  4 N        0.7670    -1.3030    -0.8890 N.am  1 <1>  -0.9140 
  5 C       -1.8050    -0.4100    -0.4460 C.ar  1 <1>  -0.0090 
  6 C        1.6910    -2.2130    -1.5520 C.3   1 <1>   0.1960 
  7 C       -1.9460     0.7100    -1.2740 C.ar  1 <1>  -0.1430 
  8 C       -2.4510    -0.3940     0.7870 C.ar  1 <1>  -0.1500 
  9 C        3.1230    -1.9180    -1.0960 C.3   1 <1>   0.1200 
 10 C       -2.7120     1.7930    -0.8650 C.ar  1 <1>  -0.1500 
 11 C       -1.2760     0.7860    -2.6410 C.3   1 <1>  -0.0970 
 12 C       -3.2170     0.6830     1.2020 C.ar  1 <1>   0.1170 
 13 O        3.1840    -1.8960     0.3200 O.3   1 <1>  -0.3630 
 14 C       -3.3470     1.7860     0.3610 C.ar  1 <1>   0.0830 
 15 N       -3.8510     0.6950     2.4450 N.am  1 <1>  -0.5470 
 16 C        3.5070    -3.0570     0.9300 C.ar  1 <1>   0.0830 
 17 O       -4.0800     2.8760     0.7200 O.3   1 <1>  -0.3630 
 18 C       -4.6820     1.6950     2.8210 C.2   1 <1>   0.5690 
 19 C        4.8350    -3.3540     1.2280 C.ar  1 <1>  -0.1430 
 20 C        2.4940    -3.9410     1.2710 C.ar  1 <1>  -0.1500 
 21 C       -5.0120     2.7870     1.8030 C.3   1 <1>   0.1810 
 22 O       -5.1720     1.7160     3.9220 O.2   1 <1>  -0.5700 
 23 C        5.1270    -4.5590     1.8500 C.ar  1 <1>  -0.1500 
 24 C        5.9680    -2.3860     0.9040 C.3   1 <1>  -0.0170 
 25 C        2.8000    -5.1400     1.8890 C.ar  1 <1>  -0.1500 
 26 C        4.1180    -5.4490     2.1750 C.ar  1 <1>  -0.1500 
 27 C        6.0840    -1.3100     1.9890 C.3   1 <1>  -0.1600 
 28 C        7.2100    -0.3180     1.6820 C.3   1 <1>  -0.2400 
 29 H        1.0430    -1.3250     0.0950 H     1 <1>   0.4200 
 30 H        1.6100    -2.0980    -2.6200 H     1 <1>   0.0800 
 31 H        1.4540    -3.2360    -1.3090 H     1 <1>   0.0800 
 32 H       -2.3570    -1.2420     1.4430 H     1 <1>   0.1500 
 33 H        3.4270    -0.9490    -1.4500 H     1 <1>   0.0800 
 34 H        3.8080    -2.6590    -1.4700 H     1 <1>   0.0800 
 35 H       -2.8250     2.6580    -1.4940 H     1 <1>   0.1500 
 36 H       -1.4350     1.7470    -3.0980 H     1 <1>   0.0800 
 37 H       -0.2150     0.6360    -2.5520 H     1 <1>   0.0800 
 38 H       -1.6810     0.0360    -3.2970 H     1 <1>   0.0800 
 39 H       -3.6750    -0.0350     3.1350 H     1 <1>   0.3700 
 40 H        1.4700    -3.6970     1.0600 H     1 <1>   0.1500 
 41 H       -5.9800     2.5900     1.3820 H     1 <1>   0.0800 
 42 H       -5.0330     3.7420     2.2940 H     1 <1>   0.0800 
 43 H        6.1460    -4.8090     2.0900 H     1 <1>   0.1500 
 44 H        5.7920    -1.9220    -0.0490 H     1 <1>   0.0800 
 45 H        6.8960    -2.9250     0.8320 H     1 <1>   0.0800 
 46 H        2.0140    -5.8270     2.1480 H     1 <1>   0.1500 
 47 H        4.3580    -6.3810     2.6570 H     1 <1>   0.1500 
 48 H        6.2690    -1.7820     2.9390 H     1 <1>   0.0800 
 49 H        5.1500    -0.7780     2.0620 H     1 <1>   0.0800 
 50 H        8.1560    -0.8270     1.6250 H     1 <1>   0.0800 
 51 H        7.2670     0.4230     2.4600 H     1 <1>   0.0800 
 52 H        7.0260     0.1820     0.7470 H     1 <1>   0.0800 
@<TRIPOS>BOND
  1   1   2  2   
  2   1   3  2   
  3   1   4  am  
  4   1   5  1   
  5   4   6  1   
  6   4  29  1   
  7   5   7  ar  
  8   5   8  ar  
  9   6   9  1   
 10   6  30  1   
 11   6  31  1   
 12   7  10  ar  
 13   7  11  1   
 14   8  12  ar  
 15   8  32  1   
 16   9  13  1   
 17   9  33  1   
 18   9  34  1   
 19  10  14  ar  
 20  10  35  1   
 21  11  36  1   
 22  11  37  1   
 23  11  38  1   
 24  12  14  ar  
 25  12  15  1   
 26  13  16  1   
 27  14  17  1   
 28  15  18  am  
 29  15  39  1   
 30  16  19  ar  
 31  16  20  ar  
 32  17  21  1   
 33  18  21  1   
 34  18  22  2   
 35  19  23  ar  
 36  19  24  1   
 37  20  25  ar  
 38  20  40  1   
 39  21  41  1   
 40  21  42  1   
 41  23  26  ar  
 42  23  43  1   
 43  24  27  1   
 44  24  44  1   
 45  24  45  1   
 46  25  26  ar  
 47  25  46  1   
 48  26  47  1   
 49  27  28  1   
 50  27  48  1   
 51  27  49  1   
 52  28  50  1   
 53  28  51  1   
 54  28  52  1   
@<TRIPOS>SUBSTRUCTURE
  1 ****   4 GROUP 4 **** **** 0

# MOE 2024.06 (io_trps.svl 2023.06)
