@<TRIPOS>MOLECULE
5-Oxo-1-phenyl-pyrrolidine-3-carboxylic acid sec-butylamide
39 40 1 0 0 
SMALL
USER_CHARGES


@<TRIPOS>ATOM
  1 O        0.3170     0.1170    -0.3810 O.2   1 <1>  -0.5700 
  2 C        0.1760     1.3090    -0.2630 C.2   1 <1>   0.5690 
  3 N       -1.0000     1.9950    -0.1480 N.am  1 <1>  -0.4770 
  4 C        1.3590     2.2370    -0.2060 C.3   1 <1>  -0.0990 
  5 C       -2.3150     1.4890    -0.1180 C.ar  1 <1>   0.1170 
  6 C       -0.7370     3.4440    -0.0090 C.3   1 <1>   0.1400 
  7 C        0.7510     3.5280     0.3540 C.3   1 <1>  -0.0190 
  8 C       -2.6020     0.2680     0.4870 C.ar  1 <1>  -0.1500 
  9 C       -3.3690     2.2030    -0.6840 C.ar  1 <1>  -0.1500 
 10 C        1.4340     4.7850    -0.1580 C.2   1 <1>   0.5690 
 11 C       -3.8960    -0.2200     0.5330 C.ar  1 <1>  -0.1500 
 12 C       -4.6640     1.7190    -0.6390 C.ar  1 <1>  -0.1500 
 13 O        1.1080     5.2420    -1.2250 O.2   1 <1>  -0.5700 
 14 N        2.4030     5.3510     0.6060 N.am  1 <1>  -0.7300 
 15 C       -4.9310     0.5060    -0.0290 C.ar  1 <1>  -0.1500 
 16 C        3.1580     6.5620     0.2530 C.3   1 <1>   0.2200 
 17 C        4.6230     6.1630     0.0250 C.3   1 <1>  -0.1600 
 18 C        2.9810     7.5620     1.3940 C.3   1 <1>  -0.2400 
 19 C        5.4990     7.3240    -0.4670 C.3   1 <1>  -0.2400 
 20 H        1.7320     2.3790    -1.2040 H     1 <1>   0.0800 
 21 H        2.1320     1.8430     0.4270 H     1 <1>   0.0800 
 22 H       -1.3560     3.8750     0.7580 H     1 <1>   0.0800 
 23 H       -0.9390     3.9230    -0.9530 H     1 <1>   0.0800 
 24 H        0.8200     3.5060     1.4270 H     1 <1>   0.0800 
 25 H       -1.8070    -0.3060     0.9260 H     1 <1>   0.1500 
 26 H       -3.1790     3.1400    -1.1710 H     1 <1>   0.1500 
 27 H       -4.0950    -1.1670     1.0040 H     1 <1>   0.1500 
 28 H       -5.4660     2.2850    -1.0820 H     1 <1>   0.1500 
 29 H        2.6730     4.9290     1.4930 H     1 <1>   0.3700 
 30 H       -5.9370     0.1270     0.0060 H     1 <1>   0.1500 
 31 H        2.7580     6.9840    -0.6560 H     1 <1>   0.0800 
 32 H        4.6490     5.3880    -0.7210 H     1 <1>   0.0800 
 33 H        5.0400     5.7690     0.9350 H     1 <1>   0.0800 
 34 H        3.4240     7.1920     2.3010 H     1 <1>   0.0800 
 35 H        1.9350     7.7490     1.5570 H     1 <1>   0.0800 
 36 H        3.4460     8.4970     1.1430 H     1 <1>   0.0800 
 37 H        5.0820     7.7570    -1.3600 H     1 <1>   0.0800 
 38 H        6.4870     6.9650    -0.6950 H     1 <1>   0.0800 
 39 H        5.5870     8.0890     0.2840 H     1 <1>   0.0800 
@<TRIPOS>BOND
  1   1   2  2   
  2   2   3  am  
  3   2   4  1   
  4   3   5  1   
  5   3   6  1   
  6   4   7  1   
  7   4  20  1   
  8   4  21  1   
  9   5   8  ar  
 10   5   9  ar  
 11   6   7  1   
 12   6  22  1   
 13   6  23  1   
 14   7  10  1   
 15   7  24  1   
 16   8  11  ar  
 17   8  25  1   
 18   9  12  ar  
 19   9  26  1   
 20  10  13  2   
 21  10  14  am  
 22  11  15  ar  
 23  11  27  1   
 24  12  15  ar  
 25  12  28  1   
 26  14  16  1   
 27  14  29  1   
 28  15  30  1   
 29  16  17  1   
 30  16  18  1   
 31  16  31  1   
 32  17  19  1   
 33  17  32  1   
 34  17  33  1   
 35  18  34  1   
 36  18  35  1   
 37  18  36  1   
 38  19  37  1   
 39  19  38  1   
 40  19  39  1   
@<TRIPOS>SUBSTRUCTURE
  1 ****   6 GROUP 4 **** **** 0

# MOE 2024.06 (io_trps.svl 2023.06)
