@<TRIPOS>MOLECULE
2-[(Z)-Cyclohexylimino]-10-oxo-1,10-dihydro-2H-1,9,10a-triaza-anthracene-3-carbo
55 59 1 0 0 
SMALL
USER_CHARGES


@<TRIPOS>ATOM
  1 O       -0.6770    -0.6110    -2.0240 O.2   1 <1>  -0.5700 
  2 C       -0.3140    -1.6000    -1.4280 C.2   1 <1>   0.8650 
  3 N       -1.2880    -2.3970    -0.7980 N.pl3 1 <1>  -0.5760 
  4 C        1.0670    -1.9520    -1.3700 C.ar  1 <1>   0.0860 
  5 C       -0.9150    -3.5220    -0.1400 C.cat 1 <1>   0.7390 
  6 C       -2.6220    -2.0540    -0.8390 C.2   1 <1>   0.1910 
  7 C        1.3780    -3.1140    -0.6770 C.ar  1 <1>   0.6590 
  8 C        2.1180    -1.2360    -1.9260 C.ar  1 <1>  -0.1500 
  9 N        0.3850    -3.8410    -0.1050 N.pl3 1 <1>  -0.6530 
 10 C       -1.8810    -4.3220     0.4860 C.2   1 <1>  -0.1800 
 11 C       -3.5760    -2.8230    -0.2330 C.2   1 <1>  -0.1500 
 12 N        2.5770    -3.6130    -0.5110 N.ar  1 <1>  -0.6200 
 13 C        3.4070    -1.7000    -1.7370 C.ar  1 <1>   0.0860 
 14 C       -3.2080    -3.9870     0.4480 C.2   1 <1>  -0.1500 
 15 C        3.5770    -2.9180    -1.0410 C.ar  1 <1>   0.4100 
 16 C        4.5440    -0.9350    -2.1870 C.2   1 <1>   0.5440 
 17 N        4.8240    -3.4450    -0.8790 N.pl3 1 <1>  -0.8690 
 18 O        5.4300    -1.4450    -2.8410 O.2   1 <1>  -0.5700 
 19 N        4.7000     0.3870    -1.9070 N.am  1 <1>  -0.7300 
 20 C        5.2430    -4.6040    -0.0740 C.3   1 <1>   0.2890 
 21 C        4.0870     1.1790    -0.8070 C.3   1 <1>   0.3200 
 22 C        6.2270    -4.1200     0.9930 C.3   1 <1>  -0.1600 
 23 C        5.8910    -5.6350    -1.0020 C.3   1 <1>  -0.1600 
 24 C        3.8030     0.3270     0.4220 C.2   1 <1>  -0.0400 
 25 C        6.7990    -5.2970     1.7970 C.3   1 <1>  -0.1600 
 26 C        6.4620    -6.8180    -0.2060 C.3   1 <1>  -0.1600 
 27 O        2.5530     0.1610     0.8220 O.3   1 <1>  -0.2800 
 28 C        4.6500    -0.3430     1.2330 C.2   1 <1>  -0.1500 
 29 C        7.4440    -6.3370     0.8720 C.3   1 <1>  -0.1600 
 30 C        2.5800    -0.5970     1.9010 C.2   1 <1>  -0.0100 
 31 C        3.8470    -0.9500     2.2050 C.2   1 <1>  -0.1500 
 32 H       -2.9150    -1.1540    -1.3640 H     1 <1>   0.1500 
 33 H        1.9380    -0.3240    -2.4730 H     1 <1>   0.1500 
 34 H        0.7190    -4.6810     0.3700 H     1 <1>   0.4500 
 35 H       -1.5660    -5.2120     1.0020 H     1 <1>   0.1500 
 36 H       -4.6170    -2.5440    -0.2720 H     1 <1>   0.1500 
 37 H       -3.9640    -4.5920     0.9250 H     1 <1>   0.1500 
 38 H        5.5820    -3.0320    -1.4450 H     1 <1>   0.4000 
 39 H        5.5430     0.8000    -2.3140 H     1 <1>   0.3700 
 40 H        4.3940    -5.0540     0.4120 H     1 <1>   0.0800 
 41 H        3.1740     1.6310    -1.1570 H     1 <1>   0.0800 
 42 H        4.7620     1.9690    -0.5280 H     1 <1>   0.0800 
 43 H        5.7230    -3.4430     1.6580 H     1 <1>   0.0800 
 44 H        7.0370    -3.5930     0.5190 H     1 <1>   0.0800 
 45 H        6.6870    -5.1680    -1.5550 H     1 <1>   0.0800 
 46 H        5.1560    -5.9940    -1.7010 H     1 <1>   0.0800 
 47 H        6.0090    -5.7630     2.3610 H     1 <1>   0.0800 
 48 H        7.5320    -4.9330     2.4970 H     1 <1>   0.0800 
 49 H        6.9650    -7.4930    -0.8760 H     1 <1>   0.0800 
 50 H        5.6560    -7.3570     0.2620 H     1 <1>   0.0800 
 51 H        5.7220    -0.4170     1.1750 H     1 <1>   0.1500 
 52 H        7.7800    -7.1780     1.4540 H     1 <1>   0.0800 
 53 H        8.3070    -5.9020     0.3960 H     1 <1>   0.0800 
 54 H        1.6570    -0.8340     2.4000 H     1 <1>   0.1500 
 55 H        4.2040    -1.5590     3.0170 H     1 <1>   0.1500 
@<TRIPOS>BOND
  1   1   2  2   
  2   2   3  1   
  3   2   4  1   
  4   3   5  ar  
  5   3   6  1   
  6   4   7  ar  
  7   4   8  ar  
  8   5   9  ar  
  9   5  10  1   
 10   6  11  2   
 11   6  32  1   
 12   7   9  1   
 13   7  12  ar  
 14   8  13  ar  
 15   8  33  1   
 16   9  34  1   
 17  10  14  2   
 18  10  35  1   
 19  11  14  1   
 20  11  36  1   
 21  12  15  ar  
 22  13  15  ar  
 23  13  16  1   
 24  14  37  1   
 25  15  17  1   
 26  16  18  2   
 27  16  19  am  
 28  17  20  1   
 29  17  38  1   
 30  19  21  1   
 31  19  39  1   
 32  20  22  1   
 33  20  23  1   
 34  20  40  1   
 35  21  24  1   
 36  21  41  1   
 37  21  42  1   
 38  22  25  1   
 39  22  43  1   
 40  22  44  1   
 41  23  26  1   
 42  23  45  1   
 43  23  46  1   
 44  24  27  1   
 45  24  28  2   
 46  25  29  1   
 47  25  47  1   
 48  25  48  1   
 49  26  29  1   
 50  26  49  1   
 51  26  50  1   
 52  27  30  1   
 53  28  31  1   
 54  28  51  1   
 55  29  52  1   
 56  29  53  1   
 57  30  31  2   
 58  30  54  1   
 59  31  55  1   
@<TRIPOS>SUBSTRUCTURE
  1 ****  12 GROUP 4 **** **** 0

# MOE 2024.06 (io_trps.svl 2023.06)
