@<TRIPOS>MOLECULE
3-Chloro-4-(2-methoxy-ethoxy)-phenylamine
25 25 1 0 0 
SMALL
USER_CHARGES


@<TRIPOS>ATOM
  1 CL       0.2670    -0.0070    -0.0290 Cl    1 <1>  -0.1770 
  2 C        0.1660     1.7420    -0.0140 C.ar  1 <1>   0.1770 
  3 C        1.3270     2.5090    -0.0180 C.ar  1 <1>   0.0820 
  4 C       -1.0860     2.3230     0.0010 C.ar  1 <1>  -0.1500 
  5 O        2.5290     1.8620    -0.0340 O.3   1 <1>  -0.3630 
  6 C        1.2030     3.8970    -0.0040 C.ar  1 <1>  -0.1500 
  7 C       -1.2050     3.7040     0.0100 C.ar  1 <1>   0.1000 
  8 C        3.7450     2.5810     0.0010 C.3   1 <1>   0.1200 
  9 C       -0.0530     4.4810     0.0110 C.ar  1 <1>  -0.1500 
 10 N       -2.4540     4.3010     0.0170 N.pl3 1 <1>  -0.9000 
 11 C        4.8950     1.5790    -0.0050 C.3   1 <1>   0.1200 
 12 O        6.0950     2.2880     0.0270 O.3   1 <1>  -0.5600 
 13 C        7.2260     1.4770     0.0260 C.3   1 <1>   0.0400 
 14 H       -1.9610     1.7020     0.0100 H     1 <1>   0.1500 
 15 H        2.0660     4.5370    -0.0030 H     1 <1>   0.1500 
 16 H        3.7690     3.1680     0.9020 H     1 <1>   0.0800 
 17 H        3.7960     3.2080    -0.8710 H     1 <1>   0.0800 
 18 H       -0.1440     5.5520     0.0280 H     1 <1>   0.1500 
 19 H       -2.4970     5.2550    -0.3520 H     1 <1>   0.4000 
 20 H       -3.2270     3.7290    -0.3350 H     1 <1>   0.4000 
 21 H        4.8680     0.9870    -0.9030 H     1 <1>   0.0800 
 22 H        4.8430     0.9490     0.8660 H     1 <1>   0.0800 
 23 H        8.0930     2.1120     0.0520 H     1 <1>   0.0800 
 24 H        7.2370     0.8830    -0.8720 H     1 <1>   0.0800 
 25 H        7.2120     0.8460     0.8980 H     1 <1>   0.0800 
@<TRIPOS>BOND
  1   1   2  1   
  2   2   3  ar  
  3   2   4  ar  
  4   3   5  1   
  5   3   6  ar  
  6   4   7  ar  
  7   4  14  1   
  8   5   8  1   
  9   6   9  ar  
 10   6  15  1   
 11   7   9  ar  
 12   7  10  1   
 13   8  11  1   
 14   8  16  1   
 15   8  17  1   
 16   9  18  1   
 17  10  19  1   
 18  10  20  1   
 19  11  12  1   
 20  11  21  1   
 21  11  22  1   
 22  12  13  1   
 23  13  23  1   
 24  13  24  1   
 25  13  25  1   
@<TRIPOS>SUBSTRUCTURE
  1 ****   3 GROUP 4 **** **** 0

# MOE 2024.06 (io_trps.svl 2023.06)
