@<TRIPOS>MOLECULE
4-(4-Hydroxy-3-methoxy-phenyl)-2,7-dimethyl-5-oxo-1,4,5,6,7,8-hexahydro-quinolin
59 62 1 0 0 
SMALL
USER_CHARGES


@<TRIPOS>ATOM
  1 O        0.6830    -0.3510    -2.1240 O.2   1 <1>  -0.5700 
  2 C        0.5460    -1.3680    -1.4850 C.2   1 <1>   0.4950 
  3 C        1.6090    -2.0730    -0.8530 C.2   1 <1>  -0.1240 
  4 C       -0.8540    -1.9550    -1.4070 C.3   1 <1>  -0.0990 
  5 C        1.4510    -3.2690    -0.2330 C.2   1 <1>  -0.0380 
  6 C        2.9910    -1.4200    -0.9010 C.3   1 <1>   0.3400 
  7 C       -1.0390    -2.8690    -0.1810 C.3   1 <1>  -0.0800 
  8 N        2.5170    -3.9660     0.2830 N.pl3 1 <1>  -0.6000 
  9 C        0.0830    -3.9200    -0.0990 C.3   1 <1>  -0.0220 
 10 C        4.1210    -2.3450    -0.4340 C.2   1 <1>  -0.1240 
 11 C        2.9960    -0.1810    -0.0010 C.ar  1 <1>  -0.1440 
 12 C       -2.4210    -3.5370    -0.2010 C.3   1 <1>  -0.2400 
 13 C        3.8230    -3.5500     0.1250 C.2   1 <1>  -0.0380 
 14 C        5.4160    -1.7700    -0.6310 C.2   1 <1>   0.6160 
 15 C        3.2590     1.0730    -0.5350 C.ar  1 <1>  -0.1500 
 16 C        2.7500    -0.3030     1.3600 C.ar  1 <1>  -0.1500 
 17 C        4.8410    -4.5720     0.6070 C.3   1 <1>  -0.1020 
 18 O        5.7100    -1.2520    -1.6920 O.2   1 <1>  -0.5700 
 19 N        6.3130    -1.7900     0.4010 N.am  1 <1>  -0.5470 
 20 C        3.2820     2.2050     0.2760 C.ar  1 <1>   0.0830 
 21 C        2.7710     0.8120     2.1800 C.ar  1 <1>  -0.1500 
 22 C        7.6200    -1.3860     0.5470 C.ar  1 <1>   0.4270 
 23 O        3.5360     3.4540    -0.2100 O.3   1 <1>  -0.3620 
 24 C        3.0370     2.0600     1.6430 C.ar  1 <1>   0.0830 
 25 N        8.1540    -1.8140     1.6810 N.ar  1 <1>  -0.6200 
 26 C        8.3140    -0.6080    -0.3780 C.ar  1 <1>  -0.1500 
 27 C        3.7100     3.6820    -1.5900 C.3   1 <1>   0.0400 
 28 O        3.0530     3.1270     2.4700 O.3   1 <1>  -0.5330 
 29 C        9.4110    -1.4630     1.8980 C.ar  1 <1>   0.1600 
 30 C        9.6210    -0.2530    -0.1370 C.ar  1 <1>  -0.1500 
 31 C       10.1860    -0.6970     1.0410 C.ar  1 <1>  -0.1430 
 32 C       11.6250    -0.3410     1.3710 C.3   1 <1>  -0.0970 
 33 H       -1.0320    -2.5080    -2.3110 H     1 <1>   0.0800 
 34 H       -1.5630    -1.1480    -1.3660 H     1 <1>   0.0800 
 35 H        3.1830    -1.1370    -1.9220 H     1 <1>   0.0800 
 36 H       -0.9760    -2.2520     0.7010 H     1 <1>   0.0800 
 37 H        2.3450    -4.8760     0.7260 H     1 <1>   0.4000 
 38 H        0.0140    -4.4260     0.8470 H     1 <1>   0.0800 
 39 H       -0.0310    -4.6510    -0.8810 H     1 <1>   0.0800 
 40 H       -2.5310    -4.1640    -1.0680 H     1 <1>   0.0800 
 41 H       -3.1960    -2.7900    -0.2180 H     1 <1>   0.0800 
 42 H       -2.5570    -4.1410     0.6790 H     1 <1>   0.0800 
 43 H        3.4460     1.1490    -1.5890 H     1 <1>   0.1500 
 44 H        2.5420    -1.2710     1.7840 H     1 <1>   0.1500 
 45 H        4.5840    -5.5470     0.2340 H     1 <1>   0.0800 
 46 H        4.8510    -4.6040     1.6820 H     1 <1>   0.0800 
 47 H        5.8320    -4.3500     0.2560 H     1 <1>   0.0800 
 48 H        5.9690    -2.2140     1.2560 H     1 <1>   0.3700 
 49 H        2.5800     0.7010     3.2310 H     1 <1>   0.1500 
 50 H        7.8350    -0.2770    -1.2790 H     1 <1>   0.1500 
 51 H        3.8590     4.7360    -1.7370 H     1 <1>   0.0800 
 52 H        2.8250     3.3600    -2.1100 H     1 <1>   0.0800 
 53 H        4.5750     3.1390    -1.9270 H     1 <1>   0.0800 
 54 H        2.8800     2.8920     3.3950 H     1 <1>   0.4500 
 55 H        9.8500    -1.8080     2.8180 H     1 <1>   0.1500 
 56 H       10.1740     0.3460    -0.8390 H     1 <1>   0.1500 
 57 H       11.9330    -0.7970     2.2950 H     1 <1>   0.0800 
 58 H       11.7250     0.7250     1.4650 H     1 <1>   0.0800 
 59 H       12.2770    -0.6830     0.5870 H     1 <1>   0.0800 
@<TRIPOS>BOND
  1   1   2  2   
  2   2   3  1   
  3   2   4  1   
  4   3   5  2   
  5   3   6  1   
  6   4   7  1   
  7   4  33  1   
  8   4  34  1   
  9   5   8  1   
 10   5   9  1   
 11   6  10  1   
 12   6  11  1   
 13   6  35  1   
 14   7   9  1   
 15   7  12  1   
 16   7  36  1   
 17   8  13  1   
 18   8  37  1   
 19   9  38  1   
 20   9  39  1   
 21  10  13  2   
 22  10  14  1   
 23  11  15  ar  
 24  11  16  ar  
 25  12  40  1   
 26  12  41  1   
 27  12  42  1   
 28  13  17  1   
 29  14  18  2   
 30  14  19  am  
 31  15  20  ar  
 32  15  43  1   
 33  16  21  ar  
 34  16  44  1   
 35  17  45  1   
 36  17  46  1   
 37  17  47  1   
 38  19  22  1   
 39  19  48  1   
 40  20  23  1   
 41  20  24  ar  
 42  21  24  ar  
 43  21  49  1   
 44  22  25  ar  
 45  22  26  ar  
 46  23  27  1   
 47  24  28  1   
 48  25  29  ar  
 49  26  30  ar  
 50  26  50  1   
 51  27  51  1   
 52  27  52  1   
 53  27  53  1   
 54  28  54  1   
 55  29  31  ar  
 56  29  55  1   
 57  30  31  ar  
 58  30  56  1   
 59  31  32  1   
 60  32  57  1   
 61  32  58  1   
 62  32  59  1   
@<TRIPOS>SUBSTRUCTURE
  1 ****  11 GROUP 4 **** **** 0

# MOE 2024.06 (io_trps.svl 2023.06)
