@<TRIPOS>MOLECULE
3-Amino-5,7-dimethyl-adamantan-1-ol
36 38 1 0 0 
SMALL
USER_CHARGES


@<TRIPOS>ATOM
  1 O        0.1530     0.2590     2.6230 O.3   1 <1>  -0.6800 
  2 C        0.2860     0.9740     1.4650 C.3   1 <1>   0.2800 
  3 C        1.6370     0.6000     0.8480 C.3   1 <1>  -0.1600 
  4 C       -0.8560     0.6050     0.5090 C.3   1 <1>  -0.1600 
  5 C        0.2450     2.4730     1.7870 C.3   1 <1>  -0.1600 
  6 C        1.8060     1.3900    -0.4530 C.3   1 <1>   0.5030 
  7 C       -0.6900     1.3890    -0.8110 C.3   1 <1>   0.0000 
  8 C        0.4250     3.2800     0.4830 C.3   1 <1>   0.0000 
  9 N        3.0890     1.0450    -1.0520 N.4   1 <1>  -0.8530 
 10 C        0.6770     1.0320    -1.4330 C.3   1 <1>  -0.1600 
 11 C        1.7760     2.8980    -0.1560 C.3   1 <1>  -0.1600 
 12 C       -0.7100     2.9010    -0.4940 C.3   1 <1>  -0.1600 
 13 C       -1.8240     1.0360    -1.7810 C.3   1 <1>  -0.2400 
 14 C        0.3840     4.7830     0.7830 C.3   1 <1>  -0.2400 
 15 H       -0.6990     0.4670     3.0530 H     1 <1>   0.4000 
 16 H        1.6510    -0.4580     0.6540 H     1 <1>   0.0800 
 17 H        2.4190     0.8440     1.5450 H     1 <1>   0.0800 
 18 H       -1.8020     0.8530     0.9580 H     1 <1>   0.0800 
 19 H       -0.8440    -0.4540     0.3140 H     1 <1>   0.0800 
 20 H       -0.7000     2.7240     2.2380 H     1 <1>   0.0800 
 21 H        1.0260     2.7200     2.4860 H     1 <1>   0.0800 
 22 H        3.1210     0.0410    -1.2510 H     1 <1>   0.4500 
 23 H        3.8480     1.2760    -0.4060 H     1 <1>   0.4500 
 24 H        3.2220     1.5630    -1.9240 H     1 <1>   0.4500 
 25 H        0.7950     1.5770    -2.3540 H     1 <1>   0.0800 
 26 H        0.6960    -0.0210    -1.6560 H     1 <1>   0.0800 
 27 H        1.9050     3.4600    -1.0650 H     1 <1>   0.0800 
 28 H        2.5710     3.1610     0.5210 H     1 <1>   0.0800 
 29 H       -1.6610     3.1640    -0.0600 H     1 <1>   0.0800 
 30 H       -0.6120     3.4670    -1.4050 H     1 <1>   0.0800 
 31 H       -1.8220    -0.0160    -2.0040 H     1 <1>   0.0800 
 32 H       -1.7210     1.5800    -2.7030 H     1 <1>   0.0800 
 33 H       -2.7780     1.2850    -1.3500 H     1 <1>   0.0800 
 34 H        1.1680     5.0580     1.4670 H     1 <1>   0.0800 
 35 H       -0.5580     5.0530     1.2280 H     1 <1>   0.0800 
 36 H        0.5050     5.3570    -0.1190 H     1 <1>   0.0800 
@<TRIPOS>BOND
  1   1   2  1   
  2   1  15  1   
  3   2   3  1   
  4   2   4  1   
  5   2   5  1   
  6   3   6  1   
  7   3  16  1   
  8   3  17  1   
  9   4   7  1   
 10   4  18  1   
 11   4  19  1   
 12   5   8  1   
 13   5  20  1   
 14   5  21  1   
 15   6   9  1   
 16   6  10  1   
 17   6  11  1   
 18   7  10  1   
 19   7  12  1   
 20   7  13  1   
 21   8  11  1   
 22   8  12  1   
 23   8  14  1   
 24   9  22  1   
 25   9  23  1   
 26   9  24  1   
 27  10  25  1   
 28  10  26  1   
 29  11  27  1   
 30  11  28  1   
 31  12  29  1   
 32  12  30  1   
 33  13  31  1   
 34  13  32  1   
 35  13  33  1   
 36  14  34  1   
 37  14  35  1   
 38  14  36  1   
@<TRIPOS>SUBSTRUCTURE
  1 ****   2 GROUP 4 **** **** 0

# MOE 2024.06 (io_trps.svl 2023.06)
