@<TRIPOS>MOLECULE
3-Hydroxy-1-methyl-3-{2-oxo-2-[4-(2-oxo-2-piperidin-1-yl-ethoxy)-phenyl]-ethyl}-
57 60 1 0 0 
SMALL
USER_CHARGES


@<TRIPOS>ATOM
  1 O       -0.5210     1.5300    -1.3660 O.2   1 <1>  -0.5700 
  2 C       -1.6070     1.3610    -0.8560 C.2   1 <1>   0.5690 
  3 N       -2.4140     0.2760    -1.0700 N.am  1 <1>  -0.4770 
  4 C       -2.3280     2.3680     0.0770 C.3   1 <1>   0.4850 
  5 C       -3.6420     0.4600    -0.4390 C.ar  1 <1>   0.1170 
  6 C       -2.0560    -0.8990    -1.8990 C.3   1 <1>   0.0600 
  7 O       -2.5710     3.5960    -0.5330 O.3   1 <1>  -0.6800 
  8 C       -3.6700     1.6680     0.2340 C.ar  1 <1>  -0.1440 
  9 C       -1.6590     2.6020     1.4350 C.3   1 <1>  -0.0990 
 10 C       -4.7510    -0.3720    -0.4290 C.ar  1 <1>  -0.1500 
 11 C       -4.8030     2.0740     0.9170 C.ar  1 <1>  -0.1500 
 12 C       -0.1640     2.8360     1.3240 C.2   1 <1>   0.4230 
 13 C       -5.8870     0.0270     0.2570 C.ar  1 <1>  -0.1500 
 14 C       -5.9140     1.2440     0.9250 C.ar  1 <1>  -0.1500 
 15 O        0.5340     1.9650     1.7790 O.2   1 <1>  -0.5700 
 16 C        0.3880     4.0320     0.7230 C.ar  1 <1>   0.0860 
 17 C        1.6670     3.9940     0.1620 C.ar  1 <1>  -0.1500 
 18 C       -0.2850     5.2570     0.6760 C.ar  1 <1>  -0.1500 
 19 C        2.2520     5.1070    -0.4090 C.ar  1 <1>  -0.1500 
 20 C        0.2930     6.3770     0.1080 C.ar  1 <1>  -0.1500 
 21 C        1.5650     6.3170    -0.4340 C.ar  1 <1>   0.0830 
 22 O        2.0660     7.4560    -0.9550 O.3   1 <1>  -0.3630 
 23 C        3.3940     7.5250    -1.4530 C.3   1 <1>   0.1810 
 24 C        3.7740     8.9510    -1.8410 C.2   1 <1>   0.5690 
 25 O        4.0650     9.1400    -3.0010 O.2   1 <1>  -0.5700 
 26 N        3.8230     9.9660    -0.9110 N.am  1 <1>  -0.6600 
 27 C        3.4670     9.8190     0.5300 C.3   1 <1>   0.1400 
 28 C        4.1910    11.3560    -1.3030 C.3   1 <1>   0.1400 
 29 C        4.6340    10.2940     1.4030 C.3   1 <1>  -0.1600 
 30 C        5.3650    11.8430    -0.4470 C.3   1 <1>  -0.1600 
 31 C        5.0580    11.7270     1.0520 C.3   1 <1>  -0.1600 
 32 H       -1.0480    -0.7990    -2.2640 H     1 <1>   0.0800 
 33 H       -2.7260    -0.9690    -2.7360 H     1 <1>   0.0800 
 34 H       -2.1260    -1.7930    -1.3060 H     1 <1>   0.0800 
 35 H       -2.9750     3.4310    -1.4070 H     1 <1>   0.4000 
 36 H       -1.8030     1.7160     2.0280 H     1 <1>   0.0800 
 37 H       -2.1370     3.4080     1.9560 H     1 <1>   0.0800 
 38 H       -4.7290    -1.3120    -0.9490 H     1 <1>   0.1500 
 39 H       -4.8230     3.0190     1.4320 H     1 <1>   0.1500 
 40 H       -6.7550    -0.6100     0.2730 H     1 <1>   0.1500 
 41 H       -6.8030     1.5450     1.4530 H     1 <1>   0.1500 
 42 H        2.2040     3.0610     0.1740 H     1 <1>   0.1500 
 43 H       -1.2740     5.3430     1.0850 H     1 <1>   0.1500 
 44 H        3.2350     5.0100    -0.8290 H     1 <1>   0.1500 
 45 H       -0.2420     7.3090     0.0790 H     1 <1>   0.1500 
 46 H        3.4590     6.8900    -2.3170 H     1 <1>   0.0800 
 47 H        4.0670     7.1760    -0.6930 H     1 <1>   0.0800 
 48 H        3.2360     8.8000     0.7790 H     1 <1>   0.0800 
 49 H        2.5940    10.4150     0.7330 H     1 <1>   0.0800 
 50 H        3.3390    11.9970    -1.1570 H     1 <1>   0.0800 
 51 H        4.4640    11.4000    -2.3440 H     1 <1>   0.0800 
 52 H        5.4660     9.6270     1.2650 H     1 <1>   0.0800 
 53 H        4.3450    10.2480     2.4380 H     1 <1>   0.0800 
 54 H        5.5820    12.8670    -0.6940 H     1 <1>   0.0800 
 55 H        6.2340    11.2570    -0.6890 H     1 <1>   0.0800 
 56 H        5.9280    12.0010     1.6240 H     1 <1>   0.0800 
 57 H        4.2630    12.4070     1.3070 H     1 <1>   0.0800 
@<TRIPOS>BOND
  1   1   2  2   
  2   2   3  am  
  3   2   4  1   
  4   3   5  1   
  5   3   6  1   
  6   4   7  1   
  7   4   8  1   
  8   4   9  1   
  9   5   8  ar  
 10   5  10  ar  
 11   6  32  1   
 12   6  33  1   
 13   6  34  1   
 14   7  35  1   
 15   8  11  ar  
 16   9  12  1   
 17   9  36  1   
 18   9  37  1   
 19  10  13  ar  
 20  10  38  1   
 21  11  14  ar  
 22  11  39  1   
 23  12  15  2   
 24  12  16  1   
 25  13  14  ar  
 26  13  40  1   
 27  14  41  1   
 28  16  17  ar  
 29  16  18  ar  
 30  17  19  ar  
 31  17  42  1   
 32  18  20  ar  
 33  18  43  1   
 34  19  21  ar  
 35  19  44  1   
 36  20  21  ar  
 37  20  45  1   
 38  21  22  1   
 39  22  23  1   
 40  23  24  1   
 41  23  46  1   
 42  23  47  1   
 43  24  25  2   
 44  24  26  am  
 45  26  27  1   
 46  26  28  1   
 47  27  29  1   
 48  27  48  1   
 49  27  49  1   
 50  28  30  1   
 51  28  50  1   
 52  28  51  1   
 53  29  31  1   
 54  29  52  1   
 55  29  53  1   
 56  30  31  1   
 57  30  54  1   
 58  30  55  1   
 59  31  56  1   
 60  31  57  1   
@<TRIPOS>SUBSTRUCTURE
  1 ****  18 GROUP 4 **** **** 0

# MOE 2024.06 (io_trps.svl 2023.06)
