@<TRIPOS>MOLECULE
2-(4-Methoxy-phenoxy)-N-[2-methoxy-5-(piperidine-1-sulfonyl)-phenyl]-acetamide
56 58 1 0 0 
SMALL
USER_CHARGES


@<TRIPOS>ATOM
  1 S        0.0210    -1.2560     1.6310 S.o2  1 <1>   1.4470 
  2 O        0.3990    -0.1770     2.5170 O.2   1 <1>  -0.6500 
  3 O        0.7850    -2.4860     1.6690 O.2   1 <1>  -0.6500 
  4 N        0.1140    -0.6720     0.0420 N.am  1 <1>  -0.8490 
  5 C       -1.7380    -1.6320     1.8860 C.ar  1 <1>  -0.0090 
  6 C        1.3720     0.0350    -0.2040 C.3   1 <1>   0.1960 
  7 C       -0.1010    -1.7270    -0.9550 C.3   1 <1>   0.1960 
  8 C       -2.7330    -1.0500     1.1090 C.ar  1 <1>  -0.1500 
  9 C       -2.1330    -2.5100     2.8880 C.ar  1 <1>  -0.1500 
 10 C        1.3430     0.7040    -1.5830 C.3   1 <1>  -0.1600 
 11 C       -0.2020    -1.1130    -2.3540 C.3   1 <1>  -0.1600 
 12 C       -4.0780    -1.3480     1.2850 C.ar  1 <1>   0.1170 
 13 C       -3.4690    -2.8030     3.1050 C.ar  1 <1>  -0.1500 
 14 C        1.0560    -0.3080    -2.6980 C.3   1 <1>  -0.1600 
 15 N       -5.0770    -0.7930     0.4680 N.am  1 <1>  -0.5470 
 16 C       -4.4490    -2.2240     2.3090 C.ar  1 <1>   0.0820 
 17 C       -5.0510    -0.3180    -0.8140 C.2   1 <1>   0.5690 
 18 O       -5.7820    -2.4680     2.4740 O.3   1 <1>  -0.3630 
 19 O       -4.0510    -0.2830    -1.4920 O.2   1 <1>  -0.5700 
 20 C       -6.3510     0.1810    -1.4310 C.3   1 <1>   0.1810 
 21 C       -6.2490    -3.3720     3.4510 C.3   1 <1>   0.0400 
 22 O       -7.4660    -0.0970    -0.5920 O.3   1 <1>  -0.3630 
 23 C       -8.7210     0.2730    -0.9560 C.ar  1 <1>   0.0820 
 24 C       -9.7410    -0.0340    -0.0690 C.ar  1 <1>  -0.1500 
 25 C       -9.0220     0.9280    -2.1470 C.ar  1 <1>  -0.1500 
 26 C      -11.0520     0.3060    -0.3570 C.ar  1 <1>  -0.1500 
 27 C      -10.3330     1.2670    -2.4340 C.ar  1 <1>  -0.1500 
 28 C      -11.3540     0.9620    -1.5480 C.ar  1 <1>   0.0820 
 29 O      -12.6090     1.3330    -1.9120 O.3   1 <1>  -0.3620 
 30 C      -13.7160     1.0680    -1.0800 C.3   1 <1>   0.0400 
 31 H        2.1980    -0.6550    -0.1400 H     1 <1>   0.0800 
 32 H        1.5140     0.7990     0.5440 H     1 <1>   0.0800 
 33 H       -1.0150    -2.2550    -0.7430 H     1 <1>   0.0800 
 34 H        0.7120    -2.4360    -0.9230 H     1 <1>   0.0800 
 35 H       -2.4500    -0.3460     0.3470 H     1 <1>   0.1500 
 36 H       -1.3810    -2.9690     3.5080 H     1 <1>   0.1500 
 37 H        2.2850     1.1890    -1.7650 H     1 <1>   0.0800 
 38 H        0.5790     1.4630    -1.5780 H     1 <1>   0.0800 
 39 H       -1.0690    -0.4750    -2.3890 H     1 <1>   0.0800 
 40 H       -0.3420    -1.8960    -3.0790 H     1 <1>   0.0800 
 41 H       -3.7180    -3.4830     3.8980 H     1 <1>   0.1500 
 42 H        1.8940    -0.9770    -2.7970 H     1 <1>   0.0800 
 43 H        0.9220     0.2040    -3.6350 H     1 <1>   0.0800 
 44 H       -6.0200    -0.8920     0.8570 H     1 <1>   0.3700 
 45 H       -6.5050    -0.3090    -2.3740 H     1 <1>   0.0800 
 46 H       -6.2890     1.2440    -1.5730 H     1 <1>   0.0800 
 47 H       -7.3210    -3.4140     3.3830 H     1 <1>   0.0800 
 48 H       -5.9590    -3.0160     4.4240 H     1 <1>   0.0800 
 49 H       -5.8320    -4.3440     3.2560 H     1 <1>   0.0800 
 50 H       -9.5030    -0.5400     0.8480 H     1 <1>   0.1500 
 51 H       -8.2620     1.1830    -2.8610 H     1 <1>   0.1500 
 52 H      -11.8170     0.0540     0.3520 H     1 <1>   0.1500 
 53 H      -10.5760     1.7730    -3.3500 H     1 <1>   0.1500 
 54 H      -14.5970     1.4470    -1.5660 H     1 <1>   0.0800 
 55 H      -13.5750     1.5700    -0.1390 H     1 <1>   0.0800 
 56 H      -13.8040     0.0050    -0.9420 H     1 <1>   0.0800 
@<TRIPOS>BOND
  1   1   2  2   
  2   1   3  2   
  3   1   4  am  
  4   1   5  1   
  5   4   6  1   
  6   4   7  1   
  7   5   8  ar  
  8   5   9  ar  
  9   6  10  1   
 10   6  31  1   
 11   6  32  1   
 12   7  11  1   
 13   7  33  1   
 14   7  34  1   
 15   8  12  ar  
 16   8  35  1   
 17   9  13  ar  
 18   9  36  1   
 19  10  14  1   
 20  10  37  1   
 21  10  38  1   
 22  11  14  1   
 23  11  39  1   
 24  11  40  1   
 25  12  15  1   
 26  12  16  ar  
 27  13  16  ar  
 28  13  41  1   
 29  14  42  1   
 30  14  43  1   
 31  15  17  am  
 32  15  44  1   
 33  16  18  1   
 34  17  19  2   
 35  17  20  1   
 36  18  21  1   
 37  20  22  1   
 38  20  45  1   
 39  20  46  1   
 40  21  47  1   
 41  21  48  1   
 42  21  49  1   
 43  22  23  1   
 44  23  24  ar  
 45  23  25  ar  
 46  24  26  ar  
 47  24  50  1   
 48  25  27  ar  
 49  25  51  1   
 50  26  28  ar  
 51  26  52  1   
 52  27  28  ar  
 53  27  53  1   
 54  28  29  1   
 55  29  30  1   
 56  30  54  1   
 57  30  55  1   
 58  30  56  1   
@<TRIPOS>SUBSTRUCTURE
  1 ****  15 GROUP 4 **** **** 0

# MOE 2024.06 (io_trps.svl 2023.06)
