@<TRIPOS>MOLECULE
N-Adamantan-1-yl-2-(4-oxo-4H-benzo[e][1,3]thiazin-2-ylsulfanyl)-acetamide
48 52 1 0 0 
SMALL
USER_CHARGES


@<TRIPOS>ATOM
  1 S        0.8090    -0.2580    -0.8790 S.3   1 <1>  -0.2420 
  2 C        2.2590     0.6450    -1.3180 C.2   1 <1>   0.7320 
  3 C        0.1380     0.6850     0.4680 C.ar  1 <1>   0.1020 
  4 S        3.1190    -0.1260    -2.6640 S.3   1 <1>  -0.3710 
  5 N        2.6760     1.6970    -0.7650 N.2   1 <1>  -0.6610 
  6 C        0.8090     1.8250     0.9050 C.ar  1 <1>   0.0860 
  7 C       -1.0410     0.2400     1.0370 C.ar  1 <1>  -0.1500 
  8 C        4.5860     0.9790    -2.9810 C.3   1 <1>   0.1310 
  9 C        2.0480     2.2870     0.3080 C.2   1 <1>   0.6950 
 10 C        0.2170     2.5130     1.9720 C.ar  1 <1>  -0.1500 
 11 C       -1.5960     0.9450     2.0880 C.ar  1 <1>  -0.1500 
 12 C        5.8280     0.1550    -3.2940 C.2   1 <1>   0.5690 
 13 O        2.6140     3.2550     0.7570 O.2   1 <1>  -0.5700 
 14 C       -0.9620     2.0840     2.5540 C.ar  1 <1>  -0.1500 
 15 O        6.0070    -0.1750    -4.4400 O.2   1 <1>  -0.5700 
 16 N        6.7580    -0.2060    -2.3730 N.am  1 <1>  -0.7300 
 17 C        6.9500     0.0560    -0.9340 C.3   1 <1>   0.3000 
 18 C        5.7380    -0.4040    -0.1040 C.3   1 <1>  -0.1600 
 19 C        7.2390     1.5490    -0.6790 C.3   1 <1>  -0.1600 
 20 C        8.1800    -0.7600    -0.4900 C.3   1 <1>  -0.1600 
 21 C        6.0010    -0.1690     1.3950 C.3   1 <1>  -0.0800 
 22 C        7.5000     1.7860     0.8210 C.3   1 <1>  -0.0800 
 23 C        8.4650    -0.5380     1.0080 C.3   1 <1>  -0.0800 
 24 C        6.2680     1.3310     1.6290 C.3   1 <1>  -0.1600 
 25 C        7.2370    -0.9800     1.8250 C.3   1 <1>  -0.1600 
 26 C        8.7250     0.9590     1.2570 C.3   1 <1>  -0.1600 
 27 H       -1.5210    -0.6480     0.6630 H     1 <1>   0.1500 
 28 H        4.7390     1.6030    -2.1280 H     1 <1>   0.0800 
 29 H        4.3320     1.5920    -3.8250 H     1 <1>   0.0800 
 30 H        0.6930     3.4030     2.3520 H     1 <1>   0.1500 
 31 H       -2.5140     0.6110     2.5420 H     1 <1>   0.1500 
 32 H       -1.3910     2.6370     3.3730 H     1 <1>   0.1500 
 33 H        7.5150    -0.7620    -2.7710 H     1 <1>   0.3700 
 34 H        5.5440    -1.4470    -0.2830 H     1 <1>   0.0800 
 35 H        4.8690     0.1540    -0.3760 H     1 <1>   0.0800 
 36 H        6.4080     2.1580    -0.9770 H     1 <1>   0.0800 
 37 H        8.0990     1.8570    -1.2480 H     1 <1>   0.0800 
 38 H        8.0050    -1.8070    -0.6650 H     1 <1>   0.0800 
 39 H        9.0420    -0.4620    -1.0600 H     1 <1>   0.0800 
 40 H        5.1440    -0.4790     1.9690 H     1 <1>   0.0800 
 41 H        7.6850     2.8320     0.9980 H     1 <1>   0.0800 
 42 H        9.3260    -1.1120     1.3060 H     1 <1>   0.0800 
 43 H        5.4060     1.9070     1.3350 H     1 <1>   0.0800 
 44 H        6.4350     1.5110     2.6760 H     1 <1>   0.0800 
 45 H        7.0560    -2.0300     1.6750 H     1 <1>   0.0800 
 46 H        7.4240    -0.8290     2.8750 H     1 <1>   0.0800 
 47 H        8.9230     1.1260     2.3010 H     1 <1>   0.0800 
 48 H        9.5940     1.2760     0.7060 H     1 <1>   0.0800 
@<TRIPOS>BOND
  1   1   2  1   
  2   1   3  1   
  3   2   4  1   
  4   2   5  2   
  5   3   6  ar  
  6   3   7  ar  
  7   4   8  1   
  8   5   9  1   
  9   6   9  1   
 10   6  10  ar  
 11   7  11  ar  
 12   7  27  1   
 13   8  12  1   
 14   8  28  1   
 15   8  29  1   
 16   9  13  2   
 17  10  14  ar  
 18  10  30  1   
 19  11  14  ar  
 20  11  31  1   
 21  12  15  2   
 22  12  16  am  
 23  14  32  1   
 24  16  17  1   
 25  16  33  1   
 26  17  18  1   
 27  17  19  1   
 28  17  20  1   
 29  18  21  1   
 30  18  34  1   
 31  18  35  1   
 32  19  22  1   
 33  19  36  1   
 34  19  37  1   
 35  20  23  1   
 36  20  38  1   
 37  20  39  1   
 38  21  24  1   
 39  21  25  1   
 40  21  40  1   
 41  22  24  1   
 42  22  26  1   
 43  22  41  1   
 44  23  25  1   
 45  23  26  1   
 46  23  42  1   
 47  24  43  1   
 48  24  44  1   
 49  25  45  1   
 50  25  46  1   
 51  26  47  1   
 52  26  48  1   
@<TRIPOS>SUBSTRUCTURE
  1 ****   5 GROUP 4 **** **** 0

# MOE 2024.06 (io_trps.svl 2023.06)
