@<TRIPOS>MOLECULE
1-[2-Isopropyl-3-(toluene-4-sulfonyl)-tetrahydro-pyrimidin-1-yl]-2-morpholin-4-y
59 61 1 0 0 
SMALL
USER_CHARGES


@<TRIPOS>ATOM
  1 S        0.3050     0.7470    -0.4510 S.o2  1 <1>   1.4470 
  2 O        0.4230     0.7680    -1.8910 O.2   1 <1>  -0.6500 
  3 O       -0.0030     2.0090     0.1890 O.2   1 <1>  -0.6500 
  4 N        1.7480     0.1840     0.2610 N.am  1 <1>  -0.8490 
  5 C       -0.9910    -0.3990     0.0930 C.ar  1 <1>  -0.0090 
  6 C        2.5930    -0.8730    -0.3380 C.3   1 <1>   0.5760 
  7 C        2.5950     1.2800     0.7450 C.3   1 <1>   0.1960 
  8 C       -1.9260    -0.9160    -0.7960 C.ar  1 <1>  -0.1500 
  9 C       -1.0970    -0.7670     1.4300 C.ar  1 <1>  -0.1500 
 10 N        3.7250    -0.2890    -1.1190 N.am  1 <1>  -0.6600 
 11 C        1.9940    -2.1310    -1.0530 C.3   1 <1>  -0.0800 
 12 C        3.2300     2.0210    -0.4410 C.3   1 <1>  -0.1600 
 13 C       -2.9120    -1.7910    -0.3730 C.ar  1 <1>  -0.1500 
 14 C       -2.0800    -1.6410     1.8590 C.ar  1 <1>  -0.1500 
 15 C        4.9640    -0.8830    -1.2390 C.2   1 <1>   0.5690 
 16 C        3.5290     1.0960    -1.6270 C.3   1 <1>   0.1400 
 17 C        1.2840    -1.9620    -2.4050 C.3   1 <1>  -0.2400 
 18 C        1.1880    -3.0550    -0.1230 C.3   1 <1>  -0.2400 
 19 C       -2.9910    -2.1630     0.9570 C.ar  1 <1>  -0.1430 
 20 O        5.7750    -0.4630    -2.0320 O.2   1 <1>  -0.5700 
 21 C        5.3990    -2.0990    -0.3890 C.3   1 <1>   0.1710 
 22 C       -4.0710    -3.1220     1.4230 C.3   1 <1>  -0.0970 
 23 N        6.2380    -1.7970     0.8040 N.3   1 <1>  -0.8100 
 24 C        5.6300    -0.8230     1.7280 C.3   1 <1>   0.1100 
 25 C        6.6090    -3.0290     1.5260 C.3   1 <1>   0.1100 
 26 C        6.5280    -0.5870     2.9550 C.3   1 <1>   0.1200 
 27 C        7.4660    -2.7140     2.7660 C.3   1 <1>   0.1200 
 28 O        6.8060    -1.8000     3.5940 O.3   1 <1>  -0.5600 
 29 H        3.0660    -1.3050     0.5260 H     1 <1>   0.0800 
 30 H        3.3750     0.8690     1.3610 H     1 <1>   0.0800 
 31 H        2.0420     1.9640     1.3670 H     1 <1>   0.0800 
 32 H       -1.8840    -0.6290    -1.8340 H     1 <1>   0.1500 
 33 H       -0.3990    -0.3630     2.1430 H     1 <1>   0.1500 
 34 H        2.8520    -2.7200    -1.3100 H     1 <1>   0.0800 
 35 H        4.1420     2.4850    -0.1130 H     1 <1>   0.0800 
 36 H        2.5780     2.8110    -0.7710 H     1 <1>   0.0800 
 37 H       -3.6200    -2.1780    -1.0860 H     1 <1>   0.1500 
 38 H       -2.1360    -1.9100     2.9000 H     1 <1>   0.1500 
 39 H        2.7200     1.0990    -2.3330 H     1 <1>   0.0800 
 40 H        4.4010     1.4530    -2.1480 H     1 <1>   0.0800 
 41 H        0.2620    -1.6690    -2.2830 H     1 <1>   0.0800 
 42 H        1.2870    -2.8950    -2.9390 H     1 <1>   0.0800 
 43 H        1.7930    -1.2310    -3.0110 H     1 <1>   0.0800 
 44 H        0.2070    -2.6740     0.0640 H     1 <1>   0.0800 
 45 H        1.6920    -3.1850     0.8180 H     1 <1>   0.0800 
 46 H        1.0750    -4.0230    -0.5790 H     1 <1>   0.0800 
 47 H        5.9710    -2.7360    -1.0400 H     1 <1>   0.0800 
 48 H        4.5490    -2.6650    -0.0690 H     1 <1>   0.0800 
 49 H       -3.7340    -3.6850     2.2750 H     1 <1>   0.0800 
 50 H       -4.3230    -3.8130     0.6390 H     1 <1>   0.0800 
 51 H       -4.9520    -2.5710     1.6980 H     1 <1>   0.0800 
 52 H        4.6710    -1.1770     2.0640 H     1 <1>   0.0800 
 53 H        5.4960     0.1150     1.2180 H     1 <1>   0.0800 
 54 H        7.1690    -3.6730     0.8700 H     1 <1>   0.0800 
 55 H        5.7240    -3.5550     1.8430 H     1 <1>   0.0800 
 56 H        6.0350     0.0530     3.6640 H     1 <1>   0.0800 
 57 H        7.4560    -0.1300     2.6600 H     1 <1>   0.0800 
 58 H        8.4130    -2.2940     2.4720 H     1 <1>   0.0800 
 59 H        7.6430    -3.6080     3.3370 H     1 <1>   0.0800 
@<TRIPOS>BOND
  1   1   2  2   
  2   1   3  2   
  3   1   4  am  
  4   1   5  1   
  5   4   6  1   
  6   4   7  1   
  7   5   8  ar  
  8   5   9  ar  
  9   6  10  1   
 10   6  11  1   
 11   6  29  1   
 12   7  12  1   
 13   7  30  1   
 14   7  31  1   
 15   8  13  ar  
 16   8  32  1   
 17   9  14  ar  
 18   9  33  1   
 19  10  15  am  
 20  10  16  1   
 21  11  17  1   
 22  11  18  1   
 23  11  34  1   
 24  12  16  1   
 25  12  35  1   
 26  12  36  1   
 27  13  19  ar  
 28  13  37  1   
 29  14  19  ar  
 30  14  38  1   
 31  15  20  2   
 32  15  21  1   
 33  16  39  1   
 34  16  40  1   
 35  17  41  1   
 36  17  42  1   
 37  17  43  1   
 38  18  44  1   
 39  18  45  1   
 40  18  46  1   
 41  19  22  1   
 42  21  23  1   
 43  21  47  1   
 44  21  48  1   
 45  22  49  1   
 46  22  50  1   
 47  22  51  1   
 48  23  24  1   
 49  23  25  1   
 50  24  26  1   
 51  24  52  1   
 52  24  53  1   
 53  25  27  1   
 54  25  54  1   
 55  25  55  1   
 56  26  28  1   
 57  26  56  1   
 58  26  57  1   
 59  27  28  1   
 60  27  58  1   
 61  27  59  1   
@<TRIPOS>SUBSTRUCTURE
  1 ****   6 GROUP 4 **** **** 0

# MOE 2024.06 (io_trps.svl 2023.06)
