@<TRIPOS>MOLECULE
4-(2-Methoxy-ethoxy)-3-trifluoromethyl-phenylamine
28 28 1 0 0 
SMALL
USER_CHARGES


@<TRIPOS>ATOM
  1 F        0.9880     0.7990     1.0850 F     1 <1>  -0.3400 
  2 C        0.3170     1.2850     0.0460 C.3   1 <1>   1.1640 
  3 F       -0.8530     0.6540     0.0520 F     1 <1>  -0.3400 
  4 F        0.9440     0.8560    -1.0450 F     1 <1>  -0.3400 
  5 C        0.1660     2.8120     0.0890 C.ar  1 <1>  -0.1440 
  6 C        1.2980     3.6240     0.0880 C.ar  1 <1>   0.0820 
  7 C       -1.0910     3.4100     0.1320 C.ar  1 <1>  -0.1500 
  8 O        2.5150     3.0150     0.0450 O.3   1 <1>  -0.3630 
  9 C        1.1590     5.0100     0.1310 C.ar  1 <1>  -0.1500 
 10 C       -1.2330     4.7890     0.1690 C.ar  1 <1>   0.1000 
 11 C        3.7190     3.7530     0.0880 C.3   1 <1>   0.1200 
 12 C       -0.0980     5.5830     0.1730 C.ar  1 <1>  -0.1500 
 13 N       -2.4920     5.3630     0.2040 N.pl3 1 <1>  -0.9000 
 14 C        4.8860     2.7710     0.0530 C.3   1 <1>   0.1200 
 15 O        6.0740     3.4990     0.0930 O.3   1 <1>  -0.5600 
 16 C        7.2170     2.7080     0.0660 C.3   1 <1>   0.0400 
 17 H       -1.9850     2.8130     0.1400 H     1 <1>   0.1500 
 18 H        2.0130     5.6610     0.1340 H     1 <1>   0.1500 
 19 H        3.7390     4.3200     1.0020 H     1 <1>   0.0800 
 20 H        3.7540     4.4010    -0.7700 H     1 <1>   0.0800 
 21 H       -0.2010     6.6520     0.2120 H     1 <1>   0.1500 
 22 H       -2.5510     6.3310    -0.1250 H     1 <1>   0.4000 
 23 H       -3.2570     4.7940    -0.1700 H     1 <1>   0.4000 
 24 H        4.8630     2.1980    -0.8580 H     1 <1>   0.0800 
 25 H        4.8510     2.1210     0.9100 H     1 <1>   0.0800 
 26 H        8.0740     3.3570     0.1010 H     1 <1>   0.0800 
 27 H        7.2330     2.1350    -0.8440 H     1 <1>   0.0800 
 28 H        7.2210     2.0580     0.9250 H     1 <1>   0.0800 
@<TRIPOS>BOND
  1   1   2  1   
  2   2   3  1   
  3   2   4  1   
  4   2   5  1   
  5   5   6  ar  
  6   5   7  ar  
  7   6   8  1   
  8   6   9  ar  
  9   7  10  ar  
 10   7  17  1   
 11   8  11  1   
 12   9  12  ar  
 13   9  18  1   
 14  10  12  ar  
 15  10  13  1   
 16  11  14  1   
 17  11  19  1   
 18  11  20  1   
 19  12  21  1   
 20  13  22  1   
 21  13  23  1   
 22  14  15  1   
 23  14  24  1   
 24  14  25  1   
 25  15  16  1   
 26  16  26  1   
 27  16  27  1   
 28  16  28  1   
@<TRIPOS>SUBSTRUCTURE
  1 ****   6 GROUP 4 **** **** 0

# MOE 2024.06 (io_trps.svl 2023.06)
