@<TRIPOS>MOLECULE
N-(5-Butyl-[1,3,4]thiadiazol-2-yl)-2-chloro-acetamide
26 26 1 0 0 
SMALL
USER_CHARGES


@<TRIPOS>ATOM
  1 CL       2.7870     3.0210    -0.9260 Cl    1 <1>  -0.2900 
  2 C        1.8120     1.7770    -0.1370 C.3   1 <1>   0.1910 
  3 C        2.6010     0.4890     0.0480 C.2   1 <1>   0.5690 
  4 O        2.0420    -0.4370     0.5770 O.2   1 <1>  -0.5700 
  5 N        3.8960     0.4390    -0.3890 N.am  1 <1>  -0.4940 
  6 C        4.8450    -0.5610    -0.3640 C.2   1 <1>   0.4420 
  7 S        4.5230    -2.1290     0.3120 S.3   1 <1>  -0.0800 
  8 N        6.0400    -0.4660    -0.8180 N.2   1 <1>  -0.3380 
  9 C        6.1450    -2.5600    -0.1040 C.2   1 <1>   0.1980 
 10 N        6.7760    -1.6090    -0.6670 N.2   1 <1>  -0.3380 
 11 C        6.5970    -3.9690     0.2430 C.3   1 <1>   0.0200 
 12 C        8.0510    -4.2480    -0.1680 C.3   1 <1>  -0.1600 
 13 C        8.4780    -5.6770     0.1950 C.3   1 <1>  -0.1600 
 14 C        9.9280    -5.9380    -0.2210 C.3   1 <1>  -0.2400 
 15 H        0.9500     1.5980    -0.7520 H     1 <1>   0.0800 
 16 H        1.5030     2.1620     0.8180 H     1 <1>   0.0800 
 17 H        4.2390     1.3000    -0.8190 H     1 <1>   0.3700 
 18 H        5.9460    -4.6670    -0.2520 H     1 <1>   0.0800 
 19 H        6.4930    -4.1080     1.3040 H     1 <1>   0.0800 
 20 H        8.6990    -3.5430     0.3250 H     1 <1>   0.0800 
 21 H        8.1520    -4.1010    -1.2300 H     1 <1>   0.0800 
 22 H        7.8360    -6.3850    -0.3010 H     1 <1>   0.0800 
 23 H        8.3840    -5.8260     1.2570 H     1 <1>   0.0800 
 24 H       10.0420    -5.8160    -1.2840 H     1 <1>   0.0800 
 25 H       10.2110    -6.9430     0.0400 H     1 <1>   0.0800 
 26 H       10.5920    -5.2550     0.2790 H     1 <1>   0.0800 
@<TRIPOS>BOND
  1   1   2  1   
  2   2   3  1   
  3   2  15  1   
  4   2  16  1   
  5   3   4  2   
  6   3   5  am  
  7   5   6  1   
  8   5  17  1   
  9   6   7  1   
 10   6   8  2   
 11   7   9  1   
 12   8  10  1   
 13   9  10  2   
 14   9  11  1   
 15  11  12  1   
 16  11  18  1   
 17  11  19  1   
 18  12  13  1   
 19  12  20  1   
 20  12  21  1   
 21  13  14  1   
 22  13  22  1   
 23  13  23  1   
 24  14  24  1   
 25  14  25  1   
 26  14  26  1   
@<TRIPOS>SUBSTRUCTURE
  1 ****   7 GROUP 4 **** **** 0

# MOE 2024.06 (io_trps.svl 2023.06)
