@<TRIPOS>MOLECULE
NONAME
47 51 1 0 0 
SMALL
USER_CHARGES


@<TRIPOS>ATOM
  1 O        1.0720     0.6700    -0.5150 O.2   1 <1>  -0.5700 
  2 C        1.4870    -0.4230    -0.2500 C.2   1 <1>   0.4480 
  3 C        0.8220    -1.7260    -0.7040 C.3   1 <1>   0.0610 
  4 C        2.7640    -0.6620     0.5560 C.3   1 <1>   0.0610 
  5 C        1.8850    -2.4510    -1.5570 C.3   1 <1>   0.1100 
  6 C        0.5510    -2.5480     0.5730 C.3   1 <1>   0.1100 
  7 C       -0.4650    -1.5280    -1.5480 C.3   1 <1>  -0.1600 
  8 C        3.7140    -1.4530    -0.3650 C.3   1 <1>   0.1100 
  9 C        2.3790    -1.5470     1.7580 C.3   1 <1>   0.1100 
 10 C        3.4370     0.6390     1.0370 C.3   1 <1>  -0.2400 
 11 N        3.0910    -2.7410    -0.7540 N.3   1 <1>  -0.8100 
 12 N        1.8120    -2.8340     1.2860 N.3   1 <1>  -0.8100 
 13 C       -1.6720    -0.9620    -0.7810 C.3   1 <1>  -0.2400 
 14 C        2.8180    -3.5960     0.4590 C.3   1 <1>   0.7440 
 15 C        4.1250    -3.9990     1.2600 C.2   1 <1>   0.5690 
 16 C        2.3340    -5.0290     0.0910 C.ar  1 <1>  -0.1440 
 17 O        4.9220    -3.2490     1.7970 O.2   1 <1>  -0.5700 
 18 N        4.2710    -5.3560     1.2880 N.am  1 <1>  -0.4770 
 19 C        3.2270    -5.9600     0.6060 C.ar  1 <1>   0.1170 
 20 C        1.2340    -5.5090    -0.6180 C.ar  1 <1>  -0.1500 
 21 C        5.3820    -6.0800     1.9510 C.3   1 <1>   0.0600 
 22 C        3.0470    -7.3250     0.4310 C.ar  1 <1>  -0.1500 
 23 C        1.0470    -6.8710    -0.7980 C.ar  1 <1>  -0.1500 
 24 C        1.9500    -7.7800    -0.2750 C.ar  1 <1>  -0.1500 
 25 H        1.5010    -3.3530    -1.9860 H     1 <1>   0.0800 
 26 H        2.1610    -1.8210    -2.3860 H     1 <1>   0.0800 
 27 H        0.0310    -3.4580     0.3550 H     1 <1>   0.0800 
 28 H       -0.0910    -1.9870     1.2290 H     1 <1>   0.0800 
 29 H       -0.7570    -2.4720    -1.9750 H     1 <1>   0.0800 
 30 H       -0.2410    -0.8640    -2.3660 H     1 <1>   0.0800 
 31 H        4.6590    -1.6180     0.1180 H     1 <1>   0.0800 
 32 H        3.9190    -0.8750    -1.2510 H     1 <1>   0.0800 
 33 H        3.2300    -1.7160     2.3900 H     1 <1>   0.0800 
 34 H        1.6460    -1.0350     2.3600 H     1 <1>   0.0800 
 35 H        4.3310     0.4190     1.5950 H     1 <1>   0.0800 
 36 H        2.7640     1.1950     1.6660 H     1 <1>   0.0800 
 37 H        3.6980     1.2570     0.1960 H     1 <1>   0.0800 
 38 H       -2.0160    -1.6490    -0.0290 H     1 <1>   0.0800 
 39 H       -2.4840    -0.7850    -1.4650 H     1 <1>   0.0800 
 40 H       -1.4250    -0.0260    -0.3110 H     1 <1>   0.0800 
 41 H        0.5000    -4.8600    -1.0470 H     1 <1>   0.1500 
 42 H        6.0620    -5.3820     2.4080 H     1 <1>   0.0800 
 43 H        5.9180    -6.6620     1.2230 H     1 <1>   0.0800 
 44 H        4.9860    -6.7300     2.7110 H     1 <1>   0.0800 
 45 H        3.7520    -8.0240     0.8390 H     1 <1>   0.1500 
 46 H        0.1920    -7.2260    -1.3480 H     1 <1>   0.1500 
 47 H        1.7980    -8.8360    -0.4190 H     1 <1>   0.1500 
@<TRIPOS>BOND
  1   1   2  2   
  2   2   3  1   
  3   2   4  1   
  4   3   5  1   
  5   3   6  1   
  6   3   7  1   
  7   4   8  1   
  8   4   9  1   
  9   4  10  1   
 10   5  11  1   
 11   5  25  1   
 12   5  26  1   
 13   6  12  1   
 14   6  27  1   
 15   6  28  1   
 16   7  13  1   
 17   7  29  1   
 18   7  30  1   
 19   8  11  1   
 20   8  31  1   
 21   8  32  1   
 22   9  12  1   
 23   9  33  1   
 24   9  34  1   
 25  10  35  1   
 26  10  36  1   
 27  10  37  1   
 28  11  14  1   
 29  12  14  1   
 30  13  38  1   
 31  13  39  1   
 32  13  40  1   
 33  14  15  1   
 34  14  16  1   
 35  15  17  2   
 36  15  18  am  
 37  16  19  ar  
 38  16  20  ar  
 39  18  19  1   
 40  18  21  1   
 41  19  22  ar  
 42  20  23  ar  
 43  20  41  1   
 44  21  42  1   
 45  21  43  1   
 46  21  44  1   
 47  22  24  ar  
 48  22  45  1   
 49  23  24  ar  
 50  23  46  1   
 51  24  47  1   
@<TRIPOS>SUBSTRUCTURE
  1 ****  14 GROUP 4 **** **** 0

# MOE 2024.06 (io_trps.svl 2023.06)
