@<TRIPOS>MOLECULE
2-(4-Hydroxy-phenyl)-5,7-dipropyl-1,3-diaza-tricyclo[3.3.1.1*3,7*]decan-6-ol
55 58 1 0 0 
SMALL
USER_CHARGES


@<TRIPOS>ATOM
  1 O       -1.7990    -0.7050    -0.2250 O.3   1 <1>  -0.5320 
  2 C       -2.1460     0.5680     0.0080 C.ar  1 <1>   0.0830 
  3 C       -3.0760     0.8420     0.9910 C.ar  1 <1>  -0.1500 
  4 C       -1.5800     1.5960    -0.7230 C.ar  1 <1>  -0.1500 
  5 C       -3.4510     2.1490     1.2440 C.ar  1 <1>  -0.1500 
  6 C       -1.9580     2.9030    -0.4680 C.ar  1 <1>  -0.1500 
  7 C       -2.9080     3.2030     0.5070 C.ar  1 <1>  -0.1430 
  8 C       -3.3010     4.6690     0.7630 C.3   1 <1>   0.8360 
  9 N       -4.6680     4.7930     1.3060 N.4   1 <1>  -0.9590 
 10 N       -3.2680     5.4990    -0.4480 N.3   1 <1>  -0.8100 
 11 C       -5.6980     4.3110     0.3220 C.3   1 <1>   0.3430 
 12 C       -4.9480     6.2110     1.6970 C.3   1 <1>   0.3430 
 13 C       -4.2220     5.0670    -1.4840 C.3   1 <1>   0.1100 
 14 C       -3.4620     6.9230    -0.1410 C.3   1 <1>   0.1100 
 15 C       -5.6640     5.1650    -0.9540 C.3   1 <1>   0.0000 
 16 C       -4.8620     7.1330     0.4660 C.3   1 <1>   0.0000 
 17 C       -5.9260     6.6420    -0.5530 C.3   1 <1>   0.2000 
 18 C       -6.5860     4.6130    -2.0820 C.3   1 <1>  -0.1600 
 19 C       -5.1110     8.6170     0.8530 C.3   1 <1>  -0.1600 
 20 O       -7.1780     6.7490     0.0440 O.3   1 <1>  -0.6800 
 21 C       -8.1190     4.5940    -1.9110 C.3   1 <1>  -0.1600 
 22 C       -4.0630     9.2780     1.7740 C.3   1 <1>  -0.1600 
 23 C       -8.6390     3.6830    -0.7940 C.3   1 <1>  -0.2400 
 24 C       -2.9990    10.0660     0.9980 C.3   1 <1>  -0.2400 
 25 H       -1.1250    -0.8070    -0.9200 H     1 <1>   0.4500 
 26 H       -3.4960     0.0250     1.5530 H     1 <1>   0.1500 
 27 H       -0.8490     1.3870    -1.4830 H     1 <1>   0.1500 
 28 H       -4.1670     2.3090     2.0280 H     1 <1>   0.1500 
 29 H       -1.4990     3.6900    -1.0440 H     1 <1>   0.1500 
 30 H       -2.5960     5.0750     1.4720 H     1 <1>   0.0800 
 31 H       -4.7000     4.1990     2.1340 H     1 <1>   0.4500 
 32 H       -6.6730     4.3850     0.7690 H     1 <1>   0.0800 
 33 H       -5.5150     3.2810     0.0670 H     1 <1>   0.0800 
 34 H       -4.2380     6.5330     2.4400 H     1 <1>   0.0800 
 35 H       -5.9370     6.2840     2.1210 H     1 <1>   0.0800 
 36 H       -4.1040     5.6880    -2.3580 H     1 <1>   0.0800 
 37 H       -4.0030     4.0550    -1.7840 H     1 <1>   0.0800 
 38 H       -3.3520     7.5080    -1.0400 H     1 <1>   0.0800 
 39 H       -2.6960     7.2350     0.5490 H     1 <1>   0.0800 
 40 H       -5.9220     7.2620    -1.4350 H     1 <1>   0.0800 
 41 H       -6.2800     3.6060    -2.3090 H     1 <1>   0.0800 
 42 H       -6.3910     5.1910    -2.9700 H     1 <1>   0.0800 
 43 H       -6.0580     8.6770     1.3630 H     1 <1>   0.0800 
 44 H       -5.2120     9.2090    -0.0410 H     1 <1>   0.0800 
 45 H       -7.5810     7.6220    -0.1470 H     1 <1>   0.4000 
 46 H       -8.5370     4.2350    -2.8370 H     1 <1>   0.0800 
 47 H       -8.5020     5.5890    -1.7760 H     1 <1>   0.0800 
 48 H       -3.5890     8.5600     2.4190 H     1 <1>   0.0800 
 49 H       -4.5730     9.9800     2.4120 H     1 <1>   0.0800 
 50 H       -8.1500     2.7250    -0.8160 H     1 <1>   0.0800 
 51 H       -9.6940     3.5230    -0.9290 H     1 <1>   0.0800 
 52 H       -8.5090     4.1400     0.1690 H     1 <1>   0.0800 
 53 H       -2.4280     9.4410     0.3390 H     1 <1>   0.0800 
 54 H       -2.3180    10.5330     1.6890 H     1 <1>   0.0800 
 55 H       -3.4610    10.8450     0.4150 H     1 <1>   0.0800 
@<TRIPOS>BOND
  1   1   2  1   
  2   1  25  1   
  3   2   3  ar  
  4   2   4  ar  
  5   3   5  ar  
  6   3  26  1   
  7   4   6  ar  
  8   4  27  1   
  9   5   7  ar  
 10   5  28  1   
 11   6   7  ar  
 12   6  29  1   
 13   7   8  1   
 14   8   9  1   
 15   8  10  1   
 16   8  30  1   
 17   9  11  1   
 18   9  12  1   
 19   9  31  1   
 20  10  13  1   
 21  10  14  1   
 22  11  15  1   
 23  11  32  1   
 24  11  33  1   
 25  12  16  1   
 26  12  34  1   
 27  12  35  1   
 28  13  15  1   
 29  13  36  1   
 30  13  37  1   
 31  14  16  1   
 32  14  38  1   
 33  14  39  1   
 34  15  17  1   
 35  15  18  1   
 36  16  17  1   
 37  16  19  1   
 38  17  20  1   
 39  17  40  1   
 40  18  21  1   
 41  18  41  1   
 42  18  42  1   
 43  19  22  1   
 44  19  43  1   
 45  19  44  1   
 46  20  45  1   
 47  21  23  1   
 48  21  46  1   
 49  21  47  1   
 50  22  24  1   
 51  22  48  1   
 52  22  49  1   
 53  23  50  1   
 54  23  51  1   
 55  23  52  1   
 56  24  53  1   
 57  24  54  1   
 58  24  55  1   
@<TRIPOS>SUBSTRUCTURE
  1 ****   9 GROUP 4 **** **** 0

# MOE 2024.06 (io_trps.svl 2023.06)
