@<TRIPOS>MOLECULE
Adamantane-1-carboxylic acid isopropyl-[3-(4-methoxy-phenyl)-[1,2,4]oxadiazol-5-
61 65 1 0 0 
SMALL
USER_CHARGES


@<TRIPOS>ATOM
  1 O        0.5400     0.6880     1.0040 O.2   1 <1>  -0.5700 
  2 C        0.5640     1.5960     0.2010 C.2   1 <1>   0.5690 
  3 N        1.4750     1.5260    -0.8350 N.am  1 <1>  -0.6600 
  4 C       -0.4280     2.7770     0.4420 C.3   1 <1>   0.0610 
  5 C        1.3640     2.2040    -2.1590 C.3   1 <1>   0.2200 
  6 C        2.6640     0.6190    -0.6460 C.3   1 <1>   0.3200 
  7 C       -1.6500     2.7090    -0.5140 C.3   1 <1>  -0.1600 
  8 C        0.2720     4.1620     0.3290 C.3   1 <1>  -0.1600 
  9 C       -1.0040     2.7090     1.8900 C.3   1 <1>  -0.1600 
 10 C        0.9940     1.1840    -3.2360 C.3   1 <1>  -0.2400 
 11 C        2.6440     2.9620    -2.5160 C.3   1 <1>  -0.2400 
 12 C        3.8110     1.3350     0.0570 C.2   1 <1>   0.2980 
 13 C       -2.6240     3.8740    -0.2560 C.3   1 <1>  -0.0800 
 14 C       -0.7190     5.3130     0.5790 C.3   1 <1>  -0.0800 
 15 C       -1.9920     3.8540     2.1800 C.3   1 <1>  -0.0800 
 16 O        3.5980     1.8630     1.2340 O.3   1 <1>  -0.0190 
 17 N        4.9880     1.4820    -0.4000 N.2   1 <1>  -0.5650 
 18 C       -1.8800     5.2130    -0.4290 C.3   1 <1>  -0.1600 
 19 C       -3.1600     3.7740     1.1830 C.3   1 <1>  -0.1600 
 20 C       -1.2700     5.2000     2.0090 C.3   1 <1>  -0.1600 
 21 N        4.7340     2.4020     1.5490 N.2   1 <1>  -0.4100 
 22 C        5.5580     2.1790     0.5880 C.2   1 <1>   0.4620 
 23 C        6.9430     2.6190     0.5410 C.ar  1 <1>   0.0540 
 24 C        7.7730     2.3250    -0.5440 C.ar  1 <1>  -0.1500 
 25 C        7.5030     3.3600     1.5840 C.ar  1 <1>  -0.1500 
 26 C        9.0880     2.7470    -0.5840 C.ar  1 <1>  -0.1500 
 27 C        8.8180     3.7870     1.5520 C.ar  1 <1>  -0.1500 
 28 C        9.6240     3.4810     0.4600 C.ar  1 <1>   0.0820 
 29 O       10.9200     3.8580     0.3460 O.3   1 <1>  -0.3620 
 30 C       11.5600     4.6050     1.3550 C.3   1 <1>   0.0400 
 31 H        0.5750     2.9250    -2.1350 H     1 <1>   0.0800 
 32 H        3.0140     0.2600    -1.5940 H     1 <1>   0.0800 
 33 H        2.3940    -0.2450    -0.0660 H     1 <1>   0.0800 
 34 H       -2.1630     1.7740    -0.3640 H     1 <1>   0.0800 
 35 H       -1.3550     2.7370    -1.5420 H     1 <1>   0.0800 
 36 H        0.7110     4.3130    -0.6340 H     1 <1>   0.0800 
 37 H        1.0730     4.2140     1.0460 H     1 <1>   0.0800 
 38 H       -0.1960     2.7460     2.6010 H     1 <1>   0.0800 
 39 H       -1.5110     1.7700     2.0370 H     1 <1>   0.0800 
 40 H        1.7880     0.4820    -3.4090 H     1 <1>   0.0800 
 41 H        0.7940     1.6940    -4.1610 H     1 <1>   0.0800 
 42 H        0.1050     0.6520    -2.9470 H     1 <1>   0.0800 
 43 H        2.9220     3.6220    -1.7140 H     1 <1>   0.0800 
 44 H        2.4770     3.5560    -3.3960 H     1 <1>   0.0800 
 45 H        3.4580     2.2920    -2.7230 H     1 <1>   0.0800 
 46 H       -3.4450     3.8220    -0.9500 H     1 <1>   0.0800 
 47 H       -0.2150     6.2580     0.4610 H     1 <1>   0.0800 
 48 H       -2.3660     3.7660     3.1860 H     1 <1>   0.0800 
 49 H       -2.5640     6.0280    -0.2730 H     1 <1>   0.0800 
 50 H       -1.5010     5.2930    -1.4330 H     1 <1>   0.0800 
 51 H       -3.6860     2.8440     1.3120 H     1 <1>   0.0800 
 52 H       -3.8560     4.5720     1.3710 H     1 <1>   0.0800 
 53 H       -1.9530     6.0080     2.2040 H     1 <1>   0.0800 
 54 H       -0.4650     5.2740     2.7190 H     1 <1>   0.0800 
 55 H        7.3820     1.7560    -1.3700 H     1 <1>   0.1500 
 56 H        6.8950     3.6060     2.4380 H     1 <1>   0.1500 
 57 H        9.7110     2.5110    -1.4280 H     1 <1>   0.1500 
 58 H        9.1970     4.3540     2.3810 H     1 <1>   0.1500 
 59 H       12.5740     4.7830     1.0460 H     1 <1>   0.0800 
 60 H       11.5510     4.0380     2.2690 H     1 <1>   0.0800 
 61 H       11.0450     5.5420     1.4760 H     1 <1>   0.0800 
@<TRIPOS>BOND
  1   1   2  2   
  2   2   3  am  
  3   2   4  1   
  4   3   5  1   
  5   3   6  1   
  6   4   7  1   
  7   4   8  1   
  8   4   9  1   
  9   5  10  1   
 10   5  11  1   
 11   5  31  1   
 12   6  12  1   
 13   6  32  1   
 14   6  33  1   
 15   7  13  1   
 16   7  34  1   
 17   7  35  1   
 18   8  14  1   
 19   8  36  1   
 20   8  37  1   
 21   9  15  1   
 22   9  38  1   
 23   9  39  1   
 24  10  40  1   
 25  10  41  1   
 26  10  42  1   
 27  11  43  1   
 28  11  44  1   
 29  11  45  1   
 30  12  16  1   
 31  12  17  2   
 32  13  18  1   
 33  13  19  1   
 34  13  46  1   
 35  14  18  1   
 36  14  20  1   
 37  14  47  1   
 38  15  19  1   
 39  15  20  1   
 40  15  48  1   
 41  16  21  1   
 42  17  22  1   
 43  18  49  1   
 44  18  50  1   
 45  19  51  1   
 46  19  52  1   
 47  20  53  1   
 48  20  54  1   
 49  21  22  2   
 50  22  23  1   
 51  23  24  ar  
 52  23  25  ar  
 53  24  26  ar  
 54  24  55  1   
 55  25  27  ar  
 56  25  56  1   
 57  26  28  ar  
 58  26  57  1   
 59  27  28  ar  
 60  27  58  1   
 61  28  29  1   
 62  29  30  1   
 63  30  59  1   
 64  30  60  1   
 65  30  61  1   
@<TRIPOS>SUBSTRUCTURE
  1 ****  16 GROUP 4 **** **** 0

# MOE 2024.06 (io_trps.svl 2023.06)
