@<TRIPOS>MOLECULE
4-(2-Chloro-ethoxy)-benzoic acid methyl ester
25 25 1 0 0 
SMALL
USER_CHARGES


@<TRIPOS>ATOM
  1 CL      -0.1860     0.6190    -0.1640 Cl    1 <1>  -0.2900 
  2 C       -1.1820    -0.8030     0.0840 C.3   1 <1>   0.1300 
  3 C       -2.6430    -0.3880    -0.0470 C.3   1 <1>   0.1200 
  4 O       -3.4480    -1.5290     0.1520 O.3   1 <1>  -0.3630 
  5 C       -4.7960    -1.4660     0.0940 C.ar  1 <1>   0.0830 
  6 C       -5.5090    -0.2990    -0.1610 C.ar  1 <1>  -0.1500 
  7 C       -5.4920    -2.6450     0.3040 C.ar  1 <1>  -0.1500 
  8 C       -6.8910    -0.3270    -0.2020 C.ar  1 <1>  -0.1500 
  9 C       -6.8730    -2.6640     0.2620 C.ar  1 <1>  -0.1500 
 10 C       -7.6140    -1.5050     0.0070 C.ar  1 <1>   0.0860 
 11 C       -9.0630    -1.5090    -0.0410 C.2   1 <1>   0.6340 
 12 O       -9.7240    -0.5140    -0.2600 O.2   1 <1>  -0.5700 
 13 O       -9.6990    -2.6680     0.1670 O.3   1 <1>  -0.4300 
 14 C      -11.1090    -2.7600     0.1380 C.3   1 <1>   0.0400 
 15 H       -0.9710    -1.1800     1.0690 H     1 <1>   0.0800 
 16 H       -0.9120    -1.5230    -0.6660 H     1 <1>   0.0800 
 17 H       -2.8370    -0.0050    -1.0330 H     1 <1>   0.0800 
 18 H       -2.8960     0.3390     0.7040 H     1 <1>   0.0800 
 19 H       -5.0090     0.6360    -0.3290 H     1 <1>   0.1500 
 20 H       -4.9410    -3.5470     0.5010 H     1 <1>   0.1500 
 21 H       -7.4300     0.5840    -0.4010 H     1 <1>   0.1500 
 22 H       -7.3870    -3.5950     0.4290 H     1 <1>   0.1500 
 23 H      -11.5150    -2.1140     0.8970 H     1 <1>   0.0800 
 24 H      -11.3890    -3.7800     0.3310 H     1 <1>   0.0800 
 25 H      -11.4570    -2.4560    -0.8340 H     1 <1>   0.0800 
@<TRIPOS>BOND
  1   1   2  1   
  2   2   3  1   
  3   2  15  1   
  4   2  16  1   
  5   3   4  1   
  6   3  17  1   
  7   3  18  1   
  8   4   5  1   
  9   5   6  ar  
 10   5   7  ar  
 11   6   8  ar  
 12   6  19  1   
 13   7   9  ar  
 14   7  20  1   
 15   8  10  ar  
 16   8  21  1   
 17   9  10  ar  
 18   9  22  1   
 19  10  11  1   
 20  11  12  2   
 21  11  13  1   
 22  13  14  1   
 23  14  23  1   
 24  14  24  1   
 25  14  25  1   
@<TRIPOS>SUBSTRUCTURE
  1 ****   6 GROUP 4 **** **** 0

# MOE 2024.06 (io_trps.svl 2023.06)
