@<TRIPOS>MOLECULE
4-(2-Hydroxy-ethyl)-5-oxo-2,5-dihydro-1H-pyrazole-3-carboxylic acid
19 19 1 0 0 
SMALL
USER_CHARGES


@<TRIPOS>ATOM
  1 O        0.4230    -0.1110    -0.3130 O.3   1 <1>  -0.5130 
  2 C        1.1820    -1.2280    -0.3750 C.2   1 <1>  -0.0890 
  3 N        0.7210    -2.4060    -0.8230 N.pl3 1 <1>   0.3000 
  4 C        2.4730    -1.3950    -0.0320 C.2   1 <1>  -0.1810 
  5 N        1.6740    -3.3530    -0.7900 N.2   1 <1>  -0.7070 
  6 C        2.7610    -2.7510    -0.3070 C.2   1 <1>   0.0560 
  7 C        3.4430    -0.3600     0.5260 C.3   1 <1>   0.0210 
  8 C        4.0950    -3.3380    -0.0800 C.2   1 <1>   1.0330 
  9 C        4.6410    -0.1700    -0.4050 C.3   1 <1>   0.1200 
 10 O        4.6920    -3.1530     1.0030 O.co2 1 <1>  -0.9000 
 11 O        4.7210    -3.9350    -0.9800 O.co2 1 <1>  -0.9000 
 12 O        5.2520     1.0480    -0.1290 O.3   1 <1>  -0.6800 
 13 H        0.9360     0.6460     0.0260 H     1 <1>   0.4500 
 14 H       -0.2310    -2.5780    -1.1550 H     1 <1>   0.2700 
 15 H        3.7930    -0.6870     1.4900 H     1 <1>   0.0800 
 16 H        2.9340     0.5770     0.6470 H     1 <1>   0.0800 
 17 H        4.3260    -0.1630    -1.4340 H     1 <1>   0.0800 
 18 H        5.3610    -0.9590    -0.2570 H     1 <1>   0.0800 
 19 H        6.1340     1.0680    -0.5470 H     1 <1>   0.4000 
@<TRIPOS>BOND
  1   1   2  1   
  2   1  13  1   
  3   2   3  1   
  4   2   4  2   
  5   3   5  1   
  6   3  14  1   
  7   4   6  1   
  8   4   7  1   
  9   5   6  2   
 10   6   8  1   
 11   7   9  1   
 12   7  15  1   
 13   7  16  1   
 14   8  10  ar  
 15   8  11  ar  
 16   9  12  1   
 17   9  17  1   
 18   9  18  1   
 19  12  19  1   
@<TRIPOS>SUBSTRUCTURE
  1 ****   4 GROUP 4 **** **** 0

# MOE 2024.06 (io_trps.svl 2023.06)
