@<TRIPOS>MOLECULE
N-[2-Hydroxy-1-(5-mercapto-4-methyl-4H-[1,2,4]triazol-3-yl)-ethyl]-4-methoxy-ben
37 38 1 0 0 
SMALL
USER_CHARGES


@<TRIPOS>ATOM
  1 S        0.3300     1.3610     0.9370 S.3   1 <1>  -0.9360 
  2 C       -0.8430     2.4700     0.8070 C.cat 1 <1>   0.7360 
  3 N       -0.8350     3.6610     1.3610 N.pl3 1 <1>  -0.3930 
  4 N       -1.9640     2.3270     0.1250 N.pl3 1 <1>  -0.7640 
  5 N       -1.9760     4.3420     1.0490 N.2   1 <1>  -0.2600 
  6 C       -2.6380     3.5200     0.3110 C.2   1 <1>   0.4850 
  7 C       -2.2780     1.0840    -0.6170 C.3   1 <1>   0.2740 
  8 C       -4.0140     3.8050    -0.3120 C.3   1 <1>   0.3880 
  9 N       -4.2720     5.2800    -0.4990 N.am  1 <1>  -0.7300 
 10 C       -5.0950     3.0380     0.4800 C.3   1 <1>   0.1200 
 11 C       -4.8090     6.1690     0.3890 C.2   1 <1>   0.5440 
 12 O       -6.3690     3.3580     0.0300 O.3   1 <1>  -0.6800 
 13 O       -5.3950     5.7400     1.3610 O.2   1 <1>  -0.5700 
 14 C       -4.7000     7.5970     0.1560 C.ar  1 <1>   0.0860 
 15 C       -5.6910     8.4740     0.6020 C.ar  1 <1>  -0.1500 
 16 C       -3.6090     8.1550    -0.5150 C.ar  1 <1>  -0.1500 
 17 C       -5.6130     9.8360     0.3780 C.ar  1 <1>  -0.1500 
 18 C       -3.5250     9.5160    -0.7450 C.ar  1 <1>  -0.1500 
 19 C       -4.5240    10.3680    -0.3050 C.ar  1 <1>   0.0830 
 20 O       -4.3680    11.6840    -0.5700 O.3   1 <1>  -0.3630 
 21 C       -5.3120    12.6440    -0.1500 C.3   1 <1>   0.0400 
 22 H       -0.0550     3.9680     1.9420 H     1 <1>   0.4500 
 23 H       -1.4730     0.8580    -1.2970 H     1 <1>   0.0800 
 24 H       -3.1910     1.1840    -1.1750 H     1 <1>   0.0800 
 25 H       -2.3720     0.2660     0.0770 H     1 <1>   0.0800 
 26 H       -4.0000     3.3740    -1.2950 H     1 <1>   0.0800 
 27 H       -3.8750     5.6630    -1.3570 H     1 <1>   0.3700 
 28 H       -5.0390     3.2720     1.5300 H     1 <1>   0.0800 
 29 H       -4.9620     1.9770     0.3630 H     1 <1>   0.0800 
 30 H       -6.5710     4.2760     0.3260 H     1 <1>   0.4000 
 31 H       -6.5380     8.0740     1.1350 H     1 <1>   0.1500 
 32 H       -2.8090     7.5240    -0.8550 H     1 <1>   0.1500 
 33 H       -6.4040    10.4670     0.7400 H     1 <1>   0.1500 
 34 H       -2.6810     9.9340    -1.2640 H     1 <1>   0.1500 
 35 H       -4.9700    13.6110    -0.4710 H     1 <1>   0.0800 
 36 H       -5.3810    12.6180     0.9230 H     1 <1>   0.0800 
 37 H       -6.2610    12.4220    -0.6040 H     1 <1>   0.0800 
@<TRIPOS>BOND
  1   1   2  1   
  2   2   3  ar  
  3   2   4  ar  
  4   3   5  1   
  5   3  22  1   
  6   4   6  1   
  7   4   7  1   
  8   5   6  2   
  9   6   8  1   
 10   7  23  1   
 11   7  24  1   
 12   7  25  1   
 13   8   9  1   
 14   8  10  1   
 15   8  26  1   
 16   9  11  am  
 17   9  27  1   
 18  10  12  1   
 19  10  28  1   
 20  10  29  1   
 21  11  13  2   
 22  11  14  1   
 23  12  30  1   
 24  14  15  ar  
 25  14  16  ar  
 26  15  17  ar  
 27  15  31  1   
 28  16  18  ar  
 29  16  32  1   
 30  17  19  ar  
 31  17  33  1   
 32  18  19  ar  
 33  18  34  1   
 34  19  20  1   
 35  20  21  1   
 36  21  35  1   
 37  21  36  1   
 38  21  37  1   
@<TRIPOS>SUBSTRUCTURE
  1 ****   9 GROUP 4 **** **** 0

# MOE 2024.06 (io_trps.svl 2023.06)
