@<TRIPOS>MOLECULE
1-Methanesulfonyl-2,3-dihydro-1H-indole-5-carboxylic acid cyclopropylamide
35 37 1 0 0 
SMALL
USER_CHARGES


@<TRIPOS>ATOM
  1 S        0.0090     0.1660    -0.6440 S.o2  1 <1>   1.3330 
  2 O       -1.1360    -0.5830    -1.1000 O.2   1 <1>  -0.6500 
  3 O        0.4570     1.3540    -1.3280 O.2   1 <1>  -0.6500 
  4 N        1.3290    -0.9490    -0.5710 N.am  1 <1>  -0.6930 
  5 C       -0.2260     0.5470     1.0780 C.3   1 <1>  -0.1350 
  6 C        2.6580    -0.6910    -0.3300 C.ar  1 <1>   0.1990 
  7 C        1.0720    -2.4050    -0.5760 C.3   1 <1>   0.1960 
  8 C        3.3650    -1.8590    -0.1540 C.ar  1 <1>  -0.1440 
  9 C        3.3230     0.5250    -0.2450 C.ar  1 <1>  -0.1500 
 10 C        2.4420    -3.0490    -0.2960 C.3   1 <1>  -0.0160 
 11 C        4.7190    -1.8480     0.1080 C.ar  1 <1>  -0.1500 
 12 C        4.6810     0.5430     0.0190 C.ar  1 <1>  -0.1500 
 13 C        5.4160    -0.6380     0.1950 C.ar  1 <1>   0.0860 
 14 C        6.8410    -0.6240     0.4540 C.2   1 <1>   0.5440 
 15 O        7.3600    -1.5070     1.1110 O.2   1 <1>  -0.5700 
 16 N        7.6260     0.3770    -0.0540 N.am  1 <1>  -0.5790 
 17 C        9.0750     0.5230     0.1420 C.3   1 <1>   0.0490 
 18 C        9.6410     1.9030     0.1790 C.3   1 <1>  -0.2000 
 19 C        9.8900     1.0190    -1.0060 C.3   1 <1>  -0.2000 
 20 H       -0.4480    -0.3460     1.6280 H     1 <1>   0.0800 
 21 H       -1.0400     1.2350     1.1930 H     1 <1>   0.0800 
 22 H        0.6620     0.9920     1.4830 H     1 <1>   0.0800 
 23 H        0.6910    -2.7020    -1.5390 H     1 <1>   0.0800 
 24 H        0.3590    -2.6590     0.1890 H     1 <1>   0.0800 
 25 H        2.7840     1.4440    -0.3880 H     1 <1>   0.1500 
 26 H        2.7420    -3.6740    -1.1170 H     1 <1>   0.0800 
 27 H        2.4140    -3.6280     0.6100 H     1 <1>   0.0800 
 28 H        5.2550    -2.7730     0.2470 H     1 <1>   0.1500 
 29 H        5.1790     1.4930     0.0950 H     1 <1>   0.1500 
 30 H        7.2120     1.0490    -0.6980 H     1 <1>   0.3700 
 31 H        9.4980    -0.2290     0.7910 H     1 <1>   0.1000 
 32 H       10.4620     2.1040     0.8450 H     1 <1>   0.1000 
 33 H        8.9740     2.7410     0.0800 H     1 <1>   0.1000 
 34 H        9.3970     1.2350    -1.9370 H     1 <1>   0.1000 
 35 H       10.8790     0.6190    -1.1440 H     1 <1>   0.1000 
@<TRIPOS>BOND
  1   1   2  2   
  2   1   3  2   
  3   1   4  am  
  4   1   5  1   
  5   4   6  1   
  6   4   7  1   
  7   5  20  1   
  8   5  21  1   
  9   5  22  1   
 10   6   8  ar  
 11   6   9  ar  
 12   7  10  1   
 13   7  23  1   
 14   7  24  1   
 15   8  10  1   
 16   8  11  ar  
 17   9  12  ar  
 18   9  25  1   
 19  10  26  1   
 20  10  27  1   
 21  11  13  ar  
 22  11  28  1   
 23  12  13  ar  
 24  12  29  1   
 25  13  14  1   
 26  14  15  2   
 27  14  16  am  
 28  16  17  1   
 29  16  30  1   
 30  17  18  1   
 31  17  19  1   
 32  17  31  1   
 33  18  19  1   
 34  18  32  1   
 35  18  33  1   
 36  19  34  1   
 37  19  35  1   
@<TRIPOS>SUBSTRUCTURE
  1 ****  12 GROUP 4 **** **** 0

# MOE 2024.06 (io_trps.svl 2023.06)
