@<TRIPOS>MOLECULE
1-Methanesulfonyl-2,3-dihydro-1H-indole-5-carboxylic acid [4-(2,2,2-trifluoro-et
48 50 1 0 0 
SMALL
USER_CHARGES


@<TRIPOS>ATOM
  1 S       -0.6160     0.2610     0.0920 S.o2  1 <1>   1.3330 
  2 O       -1.7820     0.2740    -0.7580 O.2   1 <1>  -0.6500 
  3 O        0.1840    -0.9280     0.2570 O.2   1 <1>  -0.6500 
  4 N        0.4130     1.5350    -0.4640 N.am  1 <1>  -0.6930 
  5 C       -1.0910     0.8640     1.6970 C.3   1 <1>  -0.1350 
  6 C        1.6730     1.8650    -0.0230 C.ar  1 <1>   0.1990 
  7 C       -0.1320     2.6010    -1.3310 C.3   1 <1>   0.1960 
  8 C        2.0660     3.0890    -0.5160 C.ar  1 <1>  -0.1440 
  9 C        2.5300     1.1590     0.8090 C.ar  1 <1>  -0.1500 
 10 C        0.9780     3.6660    -1.3940 C.3   1 <1>  -0.0160 
 11 C        3.2940     3.6310    -0.2000 C.ar  1 <1>  -0.1500 
 12 C        3.7620     1.6980     1.1300 C.ar  1 <1>  -0.1500 
 13 C        4.1820     2.9380     0.6290 C.ar  1 <1>   0.0860 
 14 C        5.4810     3.5000     0.9460 C.2   1 <1>   0.5440 
 15 O        5.6090     4.6880     1.1580 O.2   1 <1>  -0.5700 
 16 N        6.6220     2.7520     1.0300 N.am  1 <1>  -0.5470 
 17 C        6.8860     1.4410     0.6210 C.ar  1 <1>   0.1170 
 18 C        7.6640     0.6160     1.4210 C.ar  1 <1>  -0.1500 
 19 C        6.3940     0.9360    -0.5760 C.ar  1 <1>  -0.1500 
 20 C        7.9290    -0.6870     1.0430 C.ar  1 <1>  -0.1500 
 21 C        6.6570    -0.3680    -0.9560 C.ar  1 <1>  -0.1500 
 22 C        7.4270    -1.1920    -0.1480 C.ar  1 <1>  -0.1440 
 23 C        7.7060    -2.6300    -0.5610 C.3   1 <1>   0.2630 
 24 O        9.0600    -2.9060    -0.3750 O.3   1 <1>  -0.5600 
 25 C        9.4510    -4.2090    -0.7430 C.3   1 <1>   0.1200 
 26 C       10.9470    -4.5040    -0.4950 C.3   1 <1>   1.0200 
 27 F       11.2940    -4.3830     0.7810 F     1 <1>  -0.3400 
 28 F       11.2550    -5.7460    -0.8470 F     1 <1>  -0.3400 
 29 F       11.7570    -3.7110    -1.1860 F     1 <1>  -0.3400 
 30 H       -1.5890     1.8090     1.6050 H     1 <1>   0.0800 
 31 H       -0.2250     0.9880     2.3170 H     1 <1>   0.0800 
 32 H       -1.7550     0.1670     2.1680 H     1 <1>   0.0800 
 33 H       -1.0330     3.0050    -0.9000 H     1 <1>   0.0800 
 34 H       -0.3460     2.2000    -2.3070 H     1 <1>   0.0800 
 35 H        2.2410     0.1980     1.1930 H     1 <1>   0.1500 
 36 H        0.6280     4.6070    -1.0110 H     1 <1>   0.0800 
 37 H        1.3250     3.7910    -2.4040 H     1 <1>   0.0800 
 38 H        3.5830     4.5930    -0.5900 H     1 <1>   0.1500 
 39 H        4.4200     1.1470     1.7790 H     1 <1>   0.1500 
 40 H        7.4110     3.2870     1.3940 H     1 <1>   0.3700 
 41 H        8.0600     0.9920     2.3470 H     1 <1>   0.1500 
 42 H        5.8030     1.5640    -1.2180 H     1 <1>   0.1500 
 43 H        8.5350    -1.3150     1.6750 H     1 <1>   0.1500 
 44 H        6.2600    -0.7350    -1.8860 H     1 <1>   0.1500 
 45 H        7.4640    -2.7780    -1.5990 H     1 <1>   0.0800 
 46 H        7.1280    -3.3040     0.0480 H     1 <1>   0.0800 
 47 H        9.2470    -4.3380    -1.7900 H     1 <1>   0.0800 
 48 H        8.8680    -4.9100    -0.1750 H     1 <1>   0.0800 
@<TRIPOS>BOND
  1   1   2  2   
  2   1   3  2   
  3   1   4  am  
  4   1   5  1   
  5   4   6  1   
  6   4   7  1   
  7   5  30  1   
  8   5  31  1   
  9   5  32  1   
 10   6   8  ar  
 11   6   9  ar  
 12   7  10  1   
 13   7  33  1   
 14   7  34  1   
 15   8  10  1   
 16   8  11  ar  
 17   9  12  ar  
 18   9  35  1   
 19  10  36  1   
 20  10  37  1   
 21  11  13  ar  
 22  11  38  1   
 23  12  13  ar  
 24  12  39  1   
 25  13  14  1   
 26  14  15  2   
 27  14  16  am  
 28  16  17  1   
 29  16  40  1   
 30  17  18  ar  
 31  17  19  ar  
 32  18  20  ar  
 33  18  41  1   
 34  19  21  ar  
 35  19  42  1   
 36  20  22  ar  
 37  20  43  1   
 38  21  22  ar  
 39  21  44  1   
 40  22  23  1   
 41  23  24  1   
 42  23  45  1   
 43  23  46  1   
 44  24  25  1   
 45  25  26  1   
 46  25  47  1   
 47  25  48  1   
 48  26  27  1   
 49  26  28  1   
 50  26  29  1   
@<TRIPOS>SUBSTRUCTURE
  1 ****  19 GROUP 4 **** **** 0

# MOE 2024.06 (io_trps.svl 2023.06)
