@<TRIPOS>MOLECULE
2-(2-Methoxy-ethoxy)-phenylamine
25 25 1 0 0 
SMALL
USER_CHARGES


@<TRIPOS>ATOM
  1 O       -0.9710     0.2530    -0.9670 O.3   1 <1>  -0.3630 
  2 C       -0.4900     1.4850    -0.6650 C.ar  1 <1>   0.0820 
  3 C       -1.5700    -0.4550     0.1000 C.3   1 <1>   0.1200 
  4 C        0.7560     1.6310    -0.0410 C.ar  1 <1>   0.1000 
  5 C       -1.2530     2.5930    -0.9890 C.ar  1 <1>  -0.1500 
  6 C       -1.1530    -1.9270     0.0370 C.3   1 <1>   0.1200 
  7 N        1.5500     0.5330     0.2750 N.pl3 1 <1>  -0.9000 
  8 C        1.1970     2.9100     0.2630 C.ar  1 <1>  -0.1500 
  9 C       -0.7960     3.8630    -0.6780 C.ar  1 <1>  -0.1500 
 10 O        0.2120    -2.0390     0.3060 O.3   1 <1>  -0.5600 
 11 C        0.4290     4.0190    -0.0500 C.ar  1 <1>  -0.1500 
 12 C        0.7250    -3.3150     0.1040 C.3   1 <1>   0.0400 
 13 H       -2.6350    -0.3590    -0.0080 H     1 <1>   0.0800 
 14 H       -1.2690    -0.0250     1.0390 H     1 <1>   0.0800 
 15 H       -2.1980     2.4580    -1.4810 H     1 <1>   0.1500 
 16 H       -1.3580    -2.3220    -0.9440 H     1 <1>   0.0800 
 17 H       -1.6900    -2.4950     0.7760 H     1 <1>   0.0800 
 18 H        1.9490     0.5380     1.2130 H     1 <1>   0.4000 
 19 H        1.0680    -0.3710     0.1050 H     1 <1>   0.4000 
 20 H        2.1520     3.0330     0.7390 H     1 <1>   0.1500 
 21 H       -1.3890     4.7250    -0.9270 H     1 <1>   0.1500 
 22 H        0.7870     5.0050     0.1910 H     1 <1>   0.1500 
 23 H        1.7720    -3.2980     0.3510 H     1 <1>   0.0800 
 24 H        0.6040    -3.5860    -0.9310 H     1 <1>   0.0800 
 25 H        0.2120    -4.0120     0.7430 H     1 <1>   0.0800 
@<TRIPOS>BOND
  1   1   2  1   
  2   1   3  1   
  3   2   4  ar  
  4   2   5  ar  
  5   3   6  1   
  6   3  13  1   
  7   3  14  1   
  8   4   7  1   
  9   4   8  ar  
 10   5   9  ar  
 11   5  15  1   
 12   6  10  1   
 13   6  16  1   
 14   6  17  1   
 15   7  18  1   
 16   7  19  1   
 17   8  11  ar  
 18   8  20  1   
 19   9  11  ar  
 20   9  21  1   
 21  10  12  1   
 22  11  22  1   
 23  12  23  1   
 24  12  24  1   
 25  12  25  1   
@<TRIPOS>SUBSTRUCTURE
  1 ****   2 GROUP 4 **** **** 0

# MOE 2024.06 (io_trps.svl 2023.06)
