@<TRIPOS>MOLECULE
N-Bicyclo[2.2.1]hept-2-yl-2-(5-propyl-[1,3,4]oxadiazol-2-ylsulfanyl)-acetamide
41 43 1 0 0 
SMALL
USER_CHARGES


@<TRIPOS>ATOM
  1 S       -0.2830     1.5970     0.0180 S.3   1 <1>  -0.2860 
  2 C        1.4820     1.3930     0.1990 C.2   1 <1>   0.5340 
  3 C       -0.7590     2.4400     1.6080 C.3   1 <1>   0.1310 
  4 O        2.1470     0.8280    -0.7500 O.3   1 <1>  -0.2800 
  5 N        2.1900     1.7540     1.1970 N.2   1 <1>  -0.3380 
  6 C       -2.2530     2.7190     1.6830 C.2   1 <1>   0.5690 
  7 C        3.3590     0.8490    -0.2890 C.2   1 <1>   0.2980 
  8 N        3.4340     1.3930     0.8720 N.2   1 <1>  -0.3380 
  9 O       -2.6780     3.2690     2.6700 O.2   1 <1>  -0.5700 
 10 N       -3.0680     2.3520     0.6600 N.am  1 <1>  -0.7300 
 11 C        4.4760     0.2580    -1.1350 C.3   1 <1>   0.0200 
 12 C       -4.5330     2.5590     0.6050 C.3   1 <1>   0.2200 
 13 C        5.8580     0.3500    -0.4680 C.3   1 <1>  -0.1600 
 14 C       -5.3360     1.1400     0.4570 C.3   1 <1>  -0.0800 
 15 C       -4.9160     3.4940    -0.7240 C.3   1 <1>  -0.1600 
 16 C        6.9540    -0.2550    -1.3520 C.3   1 <1>  -0.2400 
 17 C       -5.7250     1.9260    -0.5540 C.3   1 <1>  -0.1600 
 18 C       -6.5140     0.3660    -0.3740 C.3   1 <1>  -0.1600 
 19 C       -6.0840     2.7190    -1.5690 C.3   1 <1>  -0.0800 
 20 C       -6.9010     1.3080    -1.7030 C.3   1 <1>  -0.1600 
 21 H       -0.2080     3.3600     1.6600 H     1 <1>   0.0800 
 22 H       -0.4620     1.7940     2.4130 H     1 <1>   0.0800 
 23 H       -2.6590     1.8970    -0.1580 H     1 <1>   0.3700 
 24 H        4.4980     0.7790    -2.0750 H     1 <1>   0.0800 
 25 H        4.2410    -0.7720    -1.3310 H     1 <1>   0.0800 
 26 H       -4.8580     3.0620     1.5040 H     1 <1>   0.0800 
 27 H        5.8350    -0.1690     0.4760 H     1 <1>   0.0800 
 28 H        6.0910     1.3830    -0.2690 H     1 <1>   0.0800 
 29 H       -4.5240     0.4330     0.3530 H     1 <1>   0.0800 
 30 H       -4.0470     3.6470    -1.3450 H     1 <1>   0.0800 
 31 H       -5.2610     4.4620    -0.3980 H     1 <1>   0.0800 
 32 H        6.7560    -1.2950    -1.5420 H     1 <1>   0.0800 
 33 H        7.9070    -0.1750    -0.8580 H     1 <1>   0.0800 
 34 H        7.0140     0.2670    -2.2910 H     1 <1>   0.0800 
 35 H       -4.8730     1.4630    -1.2230 H     1 <1>   0.0800 
 36 H       -6.5670     2.4020     0.1180 H     1 <1>   0.0800 
 37 H       -7.3840     0.2320     0.2530 H     1 <1>   0.0800 
 38 H       -6.1880    -0.6130    -0.6880 H     1 <1>   0.0800 
 39 H       -6.9030     3.4200    -1.4770 H     1 <1>   0.0800 
 40 H       -7.9660     1.4790    -1.7460 H     1 <1>   0.0800 
 41 H       -6.6190     0.8010    -2.6140 H     1 <1>   0.0800 
@<TRIPOS>BOND
  1   1   2  1   
  2   1   3  1   
  3   2   4  1   
  4   2   5  2   
  5   3   6  1   
  6   3  21  1   
  7   3  22  1   
  8   4   7  1   
  9   5   8  1   
 10   6   9  2   
 11   6  10  am  
 12   7   8  2   
 13   7  11  1   
 14  10  12  1   
 15  10  23  1   
 16  11  13  1   
 17  11  24  1   
 18  11  25  1   
 19  12  14  1   
 20  12  15  1   
 21  12  26  1   
 22  13  16  1   
 23  13  27  1   
 24  13  28  1   
 25  14  17  1   
 26  14  18  1   
 27  14  29  1   
 28  15  19  1   
 29  15  30  1   
 30  15  31  1   
 31  16  32  1   
 32  16  33  1   
 33  16  34  1   
 34  17  19  1   
 35  17  35  1   
 36  17  36  1   
 37  18  20  1   
 38  18  37  1   
 39  18  38  1   
 40  19  20  1   
 41  19  39  1   
 42  20  40  1   
 43  20  41  1   
@<TRIPOS>SUBSTRUCTURE
  1 ****   1 GROUP 4 **** **** 0

# MOE 2024.06 (io_trps.svl 2023.06)
