@<TRIPOS>MOLECULE
2-(Benzooxazol-2-ylsulfanyl)-N-bicyclo[2.2.1]hept-2-yl-acetamide
39 42 1 0 0 
SMALL
USER_CHARGES


@<TRIPOS>ATOM
  1 S       -0.2370     1.1520    -0.8870 S.3   1 <1>  -0.2860 
  2 C        1.4950     0.7710    -1.0380 C.2   1 <1>   0.5340 
  3 C       -0.2990     2.1490     0.6820 C.3   1 <1>   0.1310 
  4 O        1.8690     0.0540    -2.0800 O.3   1 <1>  -0.2800 
  5 N        2.4000     1.1390    -0.2150 N.2   1 <1>  -0.5650 
  6 C       -1.7130     2.5990     1.0180 C.2   1 <1>   0.5690 
  7 C        3.1740    -0.0640    -1.9270 C.ar  1 <1>   0.1400 
  8 C        3.5210     0.6040    -0.7730 C.ar  1 <1>   0.2270 
  9 O       -1.8770     3.2600     2.0150 O.2   1 <1>  -0.5700 
 10 N       -2.7480     2.2570     0.2070 N.am  1 <1>  -0.7300 
 11 C        4.1100    -0.7160    -2.7180 C.ar  1 <1>  -0.1500 
 12 C        4.8500     0.6380    -0.3690 C.ar  1 <1>  -0.1500 
 13 C       -4.1670     2.6250     0.4120 C.3   1 <1>   0.2200 
 14 C        5.4310    -0.6790    -2.3130 C.ar  1 <1>  -0.1500 
 15 C        5.7990    -0.0050    -1.1440 C.ar  1 <1>  -0.1500 
 16 C       -5.1200     1.2990     0.5450 C.3   1 <1>  -0.0800 
 17 C       -4.7120     3.5070    -0.8950 C.3   1 <1>  -0.1600 
 18 C       -5.6230     2.0560    -0.4380 C.3   1 <1>  -0.1600 
 19 C       -6.5110     0.6120     0.0250 C.3   1 <1>  -0.1600 
 20 C       -6.0960     2.8160    -1.4300 C.3   1 <1>  -0.0800 
 21 C       -7.0600     1.5020    -1.2830 C.3   1 <1>  -0.1600 
 22 H        0.3380     3.0020     0.5430 H     1 <1>   0.0800 
 23 H        0.0900     1.5300     1.4680 H     1 <1>   0.0800 
 24 H       -2.5540     1.7040    -0.6300 H     1 <1>   0.3700 
 25 H        3.7990    -1.2260    -3.6110 H     1 <1>   0.1500 
 26 H        5.1120     1.1620     0.5320 H     1 <1>   0.1500 
 27 H       -4.2560     3.2200     1.3100 H     1 <1>   0.0800 
 28 H        6.1880    -1.1720    -2.8990 H     1 <1>   0.1500 
 29 H        6.8350     0.0100    -0.8480 H     1 <1>   0.1500 
 30 H       -4.4180     0.5000     0.3490 H     1 <1>   0.0800 
 31 H       -3.9740     3.5180    -1.6820 H     1 <1>   0.0800 
 32 H       -4.8880     4.5270    -0.5960 H     1 <1>   0.0800 
 33 H       -4.9710     1.4560    -1.2150 H     1 <1>   0.0800 
 34 H       -6.2630     2.6680     0.3390 H     1 <1>   0.0800 
 35 H       -7.2470     0.6190     0.8150 H     1 <1>   0.0800 
 36 H       -6.3520    -0.4170    -0.2600 H     1 <1>   0.0800 
 37 H       -6.8080     3.6100    -1.2450 H     1 <1>   0.0800 
 38 H       -8.0890     1.7900    -1.1360 H     1 <1>   0.0800 
 39 H       -7.0160     0.9070    -2.1830 H     1 <1>   0.0800 
@<TRIPOS>BOND
  1   1   2  1   
  2   1   3  1   
  3   2   4  1   
  4   2   5  2   
  5   3   6  1   
  6   3  22  1   
  7   3  23  1   
  8   4   7  1   
  9   5   8  1   
 10   6   9  2   
 11   6  10  am  
 12   7   8  ar  
 13   7  11  ar  
 14   8  12  ar  
 15  10  13  1   
 16  10  24  1   
 17  11  14  ar  
 18  11  25  1   
 19  12  15  ar  
 20  12  26  1   
 21  13  16  1   
 22  13  17  1   
 23  13  27  1   
 24  14  15  ar  
 25  14  28  1   
 26  15  29  1   
 27  16  18  1   
 28  16  19  1   
 29  16  30  1   
 30  17  20  1   
 31  17  31  1   
 32  17  32  1   
 33  18  20  1   
 34  18  33  1   
 35  18  34  1   
 36  19  21  1   
 37  19  35  1   
 38  19  36  1   
 39  20  21  1   
 40  20  37  1   
 41  21  38  1   
 42  21  39  1   
@<TRIPOS>SUBSTRUCTURE
  1 ****   1 GROUP 4 **** **** 0

# MOE 2024.06 (io_trps.svl 2023.06)
