@<TRIPOS>MOLECULE
1-(5-Amino-[1,3,4]thiadiazol-2-ylsulfanyl)-3-(1,2,3,4-tetrahydro-carbazol-9-yl)-
44 47 1 0 0 
SMALL
USER_CHARGES


@<TRIPOS>ATOM
  1 S        0.0960     0.0390    -2.0730 S.3   1 <1>  -0.0800 
  2 C        0.6820     1.2450    -0.9870 C.2   1 <1>   0.4340 
  3 C        0.8450    -1.1100    -1.0090 C.2   1 <1>   0.4620 
  4 S        0.3010     2.9460    -1.3820 S.3   1 <1>  -0.2860 
  5 N        1.3350     0.8000     0.0080 N.2   1 <1>  -0.3380 
  6 N        1.4320    -0.5670    -0.0020 N.2   1 <1>  -0.3380 
  7 N        0.7570    -2.4350    -1.3120 N.pl3 1 <1>  -0.8840 
  8 C        1.1560     3.8750    -0.0290 C.3   1 <1>   0.0700 
  9 C        0.8910     5.3780    -0.1690 C.3   1 <1>   0.2000 
 10 O        1.5260     5.8460    -1.3110 O.3   1 <1>  -0.6800 
 11 C        1.4080     6.1540     1.0490 C.3   1 <1>   0.0960 
 12 N        1.1880     7.6040     0.8700 N.pl3 1 <1>   0.0480 
 13 C       -0.0210     8.2470     1.0190 C.ar  1 <1>  -0.1520 
 14 C        2.0860     8.5170     0.3840 C.2   1 <1>  -0.3320 
 15 C        0.1330     9.5740     0.6270 C.ar  1 <1>   0.0000 
 16 C       -1.2630     7.7820     1.4660 C.ar  1 <1>  -0.1500 
 17 C        1.4800     9.7150     0.2370 C.2   1 <1>  -0.1810 
 18 C        3.5490     8.2550     0.0640 C.3   1 <1>   0.0200 
 19 C       -0.9580    10.4480     0.6770 C.ar  1 <1>  -0.1500 
 20 C       -2.3290     8.6510     1.5110 C.ar  1 <1>  -0.1500 
 21 C        2.1660    10.9680    -0.2700 C.3   1 <1>   0.0210 
 22 C        4.1260     9.4120    -0.7720 C.3   1 <1>  -0.1600 
 23 C       -2.1770     9.9850     1.1160 C.ar  1 <1>  -0.1500 
 24 C        3.6950    10.7900    -0.2300 C.3   1 <1>  -0.1600 
 25 H        1.2030    -3.1290    -0.7100 H     1 <1>   0.4000 
 26 H        0.2870    -2.7760    -2.1510 H     1 <1>   0.4000 
 27 H        2.2060     3.6530    -0.0930 H     1 <1>   0.0800 
 28 H        0.7590     3.4970     0.8960 H     1 <1>   0.0800 
 29 H       -0.1660     5.5480    -0.2840 H     1 <1>   0.0800 
 30 H        1.3940     6.8180    -1.3800 H     1 <1>   0.4000 
 31 H        2.4560     5.9670     1.1890 H     1 <1>   0.0800 
 32 H        0.8890     5.8370     1.9340 H     1 <1>   0.0800 
 33 H       -1.3810     6.7590     1.7720 H     1 <1>   0.1500 
 34 H        3.6620     7.3360    -0.4830 H     1 <1>   0.0800 
 35 H        4.0950     8.1700     0.9870 H     1 <1>   0.0800 
 36 H       -0.8250    11.4680     0.3700 H     1 <1>   0.1500 
 37 H       -3.2920     8.3140     1.8520 H     1 <1>   0.1500 
 38 H        1.8820    11.8100     0.3360 H     1 <1>   0.0800 
 39 H        1.8440    11.1500    -1.2800 H     1 <1>   0.0800 
 40 H        3.7760     9.3150    -1.7860 H     1 <1>   0.0800 
 41 H        5.1990     9.3430    -0.7850 H     1 <1>   0.0800 
 42 H       -3.0250    10.6450     1.1600 H     1 <1>   0.1500 
 43 H        4.0270    10.8800     0.7900 H     1 <1>   0.0800 
 44 H        4.1610    11.5730    -0.8020 H     1 <1>   0.0800 
@<TRIPOS>BOND
  1   1   2  1   
  2   1   3  1   
  3   2   4  1   
  4   2   5  2   
  5   3   6  2   
  6   3   7  1   
  7   4   8  1   
  8   5   6  1   
  9   7  25  1   
 10   7  26  1   
 11   8   9  1   
 12   8  27  1   
 13   8  28  1   
 14   9  10  1   
 15   9  11  1   
 16   9  29  1   
 17  10  30  1   
 18  11  12  1   
 19  11  31  1   
 20  11  32  1   
 21  12  13  1   
 22  12  14  1   
 23  13  15  ar  
 24  13  16  ar  
 25  14  17  2   
 26  14  18  1   
 27  15  17  1   
 28  15  19  ar  
 29  16  20  ar  
 30  16  33  1   
 31  17  21  1   
 32  18  22  1   
 33  18  34  1   
 34  18  35  1   
 35  19  23  ar  
 36  19  36  1   
 37  20  23  ar  
 38  20  37  1   
 39  21  24  1   
 40  21  38  1   
 41  21  39  1   
 42  22  24  1   
 43  22  40  1   
 44  22  41  1   
 45  23  42  1   
 46  24  43  1   
 47  24  44  1   
@<TRIPOS>SUBSTRUCTURE
  1 ****   9 GROUP 4 **** **** 0

# MOE 2024.06 (io_trps.svl 2023.06)
