@<TRIPOS>MOLECULE
5-(4-Hydroxy-3,5-dimethoxy-phenyl)-2-methylsulfanyl-5,8-dihydro-3H,6H-pyrido[2,3
42 44 1 0 0 
SMALL
USER_CHARGES


@<TRIPOS>ATOM
  1 S        0.4530     0.3770    -1.7350 S.3   1 <1>  -0.3710 
  2 C        1.9820     1.1280    -1.2440 C.2   1 <1>   0.6410 
  3 C        0.3400     0.7140    -3.5500 C.3   1 <1>  -0.0100 
  4 N        2.2600     0.9980     0.0750 N.pl3 1 <1>  -0.5500 
  5 N        2.7130     1.7190    -2.1110 N.2   1 <1>  -0.6610 
  6 C        3.4010     1.5300     0.5800 C.2   1 <1>   0.2090 
  7 C        3.8730     2.2700    -1.6430 C.2   1 <1>   0.7670 
  8 N        3.6930     1.3740     1.9110 N.am  1 <1>  -0.5390 
  9 C        4.2210     2.1960    -0.2720 C.2   1 <1>  -0.1240 
 10 O        4.6090     2.8070    -2.4630 O.2   1 <1>  -0.5700 
 11 C        4.8870     1.7170     2.4600 C.2   1 <1>   0.5690 
 12 C        5.4810     2.8750     0.2540 C.3   1 <1>   0.2020 
 13 O        5.0740     1.6080     3.6410 O.2   1 <1>  -0.5700 
 14 C        5.9970     2.2120     1.5500 C.3   1 <1>  -0.0990 
 15 C        5.2070     4.3740     0.4160 C.ar  1 <1>  -0.1430 
 16 C        4.6220     4.9100     1.5560 C.ar  1 <1>  -0.1500 
 17 C        5.5380     5.2280    -0.6250 C.ar  1 <1>  -0.1500 
 18 C        4.3750     6.2690     1.6820 C.ar  1 <1>   0.0830 
 19 C        5.2880     6.5930    -0.5370 C.ar  1 <1>   0.0830 
 20 O        3.8060     6.6270     2.8710 O.3   1 <1>  -0.3630 
 21 C        4.7140     7.1170     0.6180 C.ar  1 <1>   0.0830 
 22 O        5.5730     7.4650    -1.5510 O.3   1 <1>  -0.3630 
 23 C        3.6160     7.9690     3.2540 C.3   1 <1>   0.0400 
 24 O        4.5120     8.4550     0.6190 O.3   1 <1>  -0.5320 
 25 C        5.8600     6.9880    -2.8490 C.3   1 <1>   0.0400 
 26 H       -0.5770     0.2830    -3.9110 H     1 <1>   0.0800 
 27 H        1.1920     0.2610    -4.0250 H     1 <1>   0.0800 
 28 H        0.3480     1.7800    -3.6900 H     1 <1>   0.0800 
 29 H        1.5820     0.4940     0.6460 H     1 <1>   0.4000 
 30 H        3.0070     1.0100     2.5710 H     1 <1>   0.3700 
 31 H        6.2640     2.7590    -0.4770 H     1 <1>   0.0800 
 32 H        6.5920     1.3570     1.2890 H     1 <1>   0.0800 
 33 H        6.6280     2.8940     2.0900 H     1 <1>   0.0800 
 34 H        4.3380     4.2880     2.3840 H     1 <1>   0.1500 
 35 H        5.9850     4.8160    -1.5110 H     1 <1>   0.1500 
 36 H        3.2370     7.9810     4.2600 H     1 <1>   0.0800 
 37 H        2.9040     8.4230     2.5890 H     1 <1>   0.0800 
 38 H        4.5610     8.4810     3.2120 H     1 <1>   0.0800 
 39 H        4.8250     8.8120    -0.2370 H     1 <1>   0.4500 
 40 H        5.9120     7.8320    -3.5140 H     1 <1>   0.0800 
 41 H        5.0710     6.3250    -3.1620 H     1 <1>   0.0800 
 42 H        6.8060     6.4780    -2.8350 H     1 <1>   0.0800 
@<TRIPOS>BOND
  1   1   2  1   
  2   1   3  1   
  3   2   4  1   
  4   2   5  2   
  5   3  26  1   
  6   3  27  1   
  7   3  28  1   
  8   4   6  1   
  9   4  29  1   
 10   5   7  1   
 11   6   8  1   
 12   6   9  2   
 13   7   9  1   
 14   7  10  2   
 15   8  11  am  
 16   8  30  1   
 17   9  12  1   
 18  11  13  2   
 19  11  14  1   
 20  12  14  1   
 21  12  15  1   
 22  12  31  1   
 23  14  32  1   
 24  14  33  1   
 25  15  16  ar  
 26  15  17  ar  
 27  16  18  ar  
 28  16  34  1   
 29  17  19  ar  
 30  17  35  1   
 31  18  20  1   
 32  18  21  ar  
 33  19  21  ar  
 34  19  22  1   
 35  20  23  1   
 36  21  24  1   
 37  22  25  1   
 38  23  36  1   
 39  23  37  1   
 40  23  38  1   
 41  24  39  1   
 42  25  40  1   
 43  25  41  1   
 44  25  42  1   
@<TRIPOS>SUBSTRUCTURE
  1 ****  15 GROUP 4 **** **** 0

# MOE 2024.06 (io_trps.svl 2023.06)
