@<TRIPOS>MOLECULE
7-[3-(3,4-Dimethyl-phenoxy)-2-hydroxy-propyl]-3-methyl-8-pyrrolidin-1-yl-3,7-dih
58 61 1 0 0 
SMALL
USER_CHARGES


@<TRIPOS>ATOM
  1 O        1.0180     2.6620     0.0800 O.2   1 <1>  -0.5740 
  2 C        2.2160     2.5570    -0.0370 C.2   1 <1>   0.6870 
  3 N        2.8620     1.3310     0.0320 N.am  1 <1>  -0.4410 
  4 N        2.9500     3.6890    -0.2410 N.am  1 <1>  -0.4940 
  5 C        4.2440     1.3250    -0.1020 C.2   1 <1>   0.4210 
  6 C        2.0980     0.0710     0.2630 C.3   1 <1>   0.0530 
  7 C        4.3090     3.6990    -0.3740 C.2   1 <1>   0.7000 
  8 N        5.0800     0.2580    -0.0290 N.pl3 1 <1>  -0.7030 
  9 C        4.9850     2.4340    -0.3150 C.2   1 <1>   0.2710 
 10 O        4.8760     4.7670    -0.5230 O.2   1 <1>  -0.5740 
 11 C        6.3370     0.6830    -0.1850 C.cat 1 <1>   1.0690 
 12 N        6.3270     2.0100    -0.3940 N.pl3 1 <1>  -0.7670 
 13 N        7.3920    -0.1610    -0.1130 N.pl3 1 <1>  -0.5960 
 14 C        7.4440     3.0030    -0.4620 C.3   1 <1>   0.3490 
 15 C        8.8190     0.1620    -0.3870 C.3   1 <1>   0.1610 
 16 C        7.2770    -1.5900     0.2860 C.3   1 <1>   0.1610 
 17 C        7.8560     3.4890     0.9460 C.3   1 <1>   0.1940 
 18 C        9.5680    -1.1610    -0.2980 C.3   1 <1>  -0.1660 
 19 C        8.6990    -2.0370     0.5920 C.3   1 <1>  -0.1660 
 20 O        6.7580     4.0150     1.6280 O.3   1 <1>  -0.6830 
 21 C        8.9740     4.5300     0.8870 C.3   1 <1>   0.1140 
 22 O       10.0250     3.9850     0.1170 O.3   1 <1>  -0.3680 
 23 C       11.1560     4.6930    -0.1270 C.ar  1 <1>   0.0760 
 24 C       11.3960     5.9700     0.3720 C.ar  1 <1>  -0.1560 
 25 C       12.1120     4.0860    -0.9230 C.ar  1 <1>  -0.1560 
 26 C       12.5760     6.6340     0.0750 C.ar  1 <1>  -0.1500 
 27 C       13.2910     4.7450    -1.2200 C.ar  1 <1>  -0.1560 
 28 C       13.5320     6.0180    -0.7270 C.ar  1 <1>  -0.1500 
 29 C       12.8020     8.0300     0.6390 C.3   1 <1>  -0.1030 
 30 C       14.8420     6.7080    -1.0780 C.3   1 <1>  -0.1030 
 31 H        2.4450     4.5720    -0.2730 H     1 <1>   0.3650 
 32 H        1.0390     0.2420     0.1580 H     1 <1>   0.0730 
 33 H        2.2860    -0.2920     1.2590 H     1 <1>   0.0730 
 34 H        2.3890    -0.6750    -0.4540 H     1 <1>   0.0730 
 35 H        4.8170    -0.7070     0.1390 H     1 <1>   0.4450 
 36 H        7.1450     3.8500    -1.0550 H     1 <1>   0.0730 
 37 H        8.2900     2.5780    -0.9670 H     1 <1>   0.0730 
 38 H        9.1910     0.8370     0.3650 H     1 <1>   0.0730 
 39 H        8.9420     0.5920    -1.3670 H     1 <1>   0.0730 
 40 H        6.8870    -2.1610    -0.5400 H     1 <1>   0.0730 
 41 H        6.6470    -1.7130     1.1510 H     1 <1>   0.0730 
 42 H        8.2080     2.6520     1.5240 H     1 <1>   0.0730 
 43 H       10.5610    -1.0340     0.0990 H     1 <1>   0.0730 
 44 H        9.6430    -1.5950    -1.2810 H     1 <1>   0.0730 
 45 H        8.8420    -3.0870     0.3970 H     1 <1>   0.0730 
 46 H        8.9200    -1.8440     1.6280 H     1 <1>   0.0730 
 47 H        6.4320     4.8370     1.1970 H     1 <1>   0.3950 
 48 H        9.3500     4.7390     1.8730 H     1 <1>   0.0730 
 49 H        8.6400     5.4320     0.4040 H     1 <1>   0.0730 
 50 H       10.6740     6.4610     0.9940 H     1 <1>   0.1440 
 51 H       11.9360     3.1010    -1.3090 H     1 <1>   0.1440 
 52 H       14.0220     4.2580    -1.8410 H     1 <1>   0.1440 
 53 H       11.9670     8.3470     1.2380 H     1 <1>   0.0730 
 54 H       12.9270     8.7350    -0.1630 H     1 <1>   0.0730 
 55 H       13.6820     8.0400     1.2560 H     1 <1>   0.0730 
 56 H       14.6460     7.6260    -1.6020 H     1 <1>   0.0730 
 57 H       15.4510     6.0850    -1.7070 H     1 <1>   0.0730 
 58 H       15.3950     6.9250    -0.1820 H     1 <1>   0.0730 
@<TRIPOS>BOND
  1   1   2  2   
  2   2   3  am  
  3   2   4  am  
  4   3   5  1   
  5   3   6  1   
  6   4   7  am  
  7   4  31  1   
  8   5   8  1   
  9   5   9  2   
 10   6  32  1   
 11   6  33  1   
 12   6  34  1   
 13   7   9  1   
 14   7  10  2   
 15   8  11  ar  
 16   8  35  1   
 17   9  12  1   
 18  11  12  ar  
 19  11  13  ar  
 20  12  14  1   
 21  13  15  1   
 22  13  16  1   
 23  14  17  1   
 24  14  36  1   
 25  14  37  1   
 26  15  18  1   
 27  15  38  1   
 28  15  39  1   
 29  16  19  1   
 30  16  40  1   
 31  16  41  1   
 32  17  20  1   
 33  17  21  1   
 34  17  42  1   
 35  18  19  1   
 36  18  43  1   
 37  18  44  1   
 38  19  45  1   
 39  19  46  1   
 40  20  47  1   
 41  21  22  1   
 42  21  48  1   
 43  21  49  1   
 44  22  23  1   
 45  23  24  ar  
 46  23  25  ar  
 47  24  26  ar  
 48  24  50  1   
 49  25  27  ar  
 50  25  51  1   
 51  26  28  ar  
 52  26  29  1   
 53  27  28  ar  
 54  27  52  1   
 55  28  30  1   
 56  29  53  1   
 57  29  54  1   
 58  29  55  1   
 59  30  56  1   
 60  30  57  1   
 61  30  58  1   
@<TRIPOS>SUBSTRUCTURE
  1 ****  14 GROUP 4 **** **** 0

# MOE 2024.06 (io_trps.svl 2023.06)
