@<TRIPOS>MOLECULE
8-(2,5-Dimethoxy-phenyl)-1,6-dimethyl-3-propyl-5,6,7,8-tetrahydro-1H-1,3,4b,8,9-
58 61 1 0 0 
SMALL
USER_CHARGES


@<TRIPOS>ATOM
  1 O        0.9870     1.9390    -2.7150 O.2   1 <1>  -0.5740 
  2 C        1.9430     2.0040    -1.9700 C.2   1 <1>   0.6870 
  3 N        2.1830     3.1620    -1.2350 N.am  1 <1>  -0.4250 
  4 N        2.7970     0.9150    -1.8520 N.am  1 <1>  -0.4410 
  5 C        3.2610     3.2530    -0.3660 C.2   1 <1>   0.7000 
  6 C        1.2450     4.3170    -1.3620 C.3   1 <1>   0.1340 
  7 C        3.8520     1.0090    -0.9660 C.2   1 <1>   0.4210 
  8 C        2.5620    -0.3370    -2.6310 C.3   1 <1>   0.0530 
  9 O        3.4760     4.2700     0.2730 O.2   1 <1>  -0.5740 
 10 C        4.1180     2.1140    -0.2380 C.2   1 <1>   0.2720 
 11 C        0.1210     4.1980    -0.3280 C.3   1 <1>  -0.1660 
 12 N        4.7880     0.0650    -0.6750 N.pl3 1 <1>  -0.7030 
 13 N        5.2690     1.8220     0.5080 N.pl3 1 <1>  -0.7670 
 14 C       -0.8560     5.3730    -0.4370 C.3   1 <1>  -0.2460 
 15 C        5.6360     0.5800     0.2110 C.cat 1 <1>   1.0690 
 16 C        5.9950     2.7170     1.4310 C.3   1 <1>   0.3490 
 17 N        6.7070    -0.0250     0.7630 N.pl3 1 <1>  -0.5790 
 18 C        7.4510     2.2380     1.5500 C.3   1 <1>  -0.0870 
 19 C        7.0910    -1.3540     0.4740 C.ar  1 <1>   0.3060 
 20 C        7.5210     0.7150     1.7720 C.3   1 <1>   0.1620 
 21 C        8.1830     2.9810     2.6780 C.3   1 <1>  -0.2460 
 22 C        7.3560    -1.7880    -0.8350 C.ar  1 <1>   0.0760 
 23 C        7.2090    -2.2620     1.5150 C.ar  1 <1>  -0.1560 
 24 O        7.2280    -0.8890    -1.8560 O.3   1 <1>  -0.3670 
 25 C        7.7310    -3.1070    -1.0660 C.ar  1 <1>  -0.1560 
 26 C        7.5840    -3.5720     1.2850 C.ar  1 <1>   0.0760 
 27 C        7.9400    -1.0750    -3.0640 C.3   1 <1>   0.0330 
 28 C        7.8460    -3.9960    -0.0120 C.ar  1 <1>  -0.1560 
 29 O        7.6690    -4.3740     2.3760 O.3   1 <1>  -0.3670 
 30 C        8.0710    -5.7220     2.2630 C.3   1 <1>   0.0330 
 31 H        0.8250     4.3430    -2.3540 H     1 <1>   0.0730 
 32 H        1.7780     5.2420    -1.2150 H     1 <1>   0.0730 
 33 H        1.9390    -0.1420    -3.4880 H     1 <1>   0.0730 
 34 H        2.0710    -1.0650    -2.0090 H     1 <1>   0.0730 
 35 H        3.4960    -0.7380    -2.9830 H     1 <1>   0.0730 
 36 H        0.5390     4.1860     0.6640 H     1 <1>   0.0730 
 37 H       -0.4200     3.2810    -0.4880 H     1 <1>   0.0730 
 38 H        4.9480    -0.8350    -1.1220 H     1 <1>   0.4460 
 39 H       -0.3480     6.3050    -0.2630 H     1 <1>   0.0730 
 40 H       -1.6380     5.2690     0.2950 H     1 <1>   0.0730 
 41 H       -1.3070     5.3990    -1.4140 H     1 <1>   0.0730 
 42 H        5.5120     2.6960     2.3940 H     1 <1>   0.0730 
 43 H        5.9710     3.7290     1.0600 H     1 <1>   0.0730 
 44 H        7.9590     2.4690     0.6290 H     1 <1>   0.0730 
 45 H        8.5490     0.3940     1.7070 H     1 <1>   0.0730 
 46 H        7.1570     0.4740     2.7570 H     1 <1>   0.0730 
 47 H        7.7240     2.7870     3.6330 H     1 <1>   0.0730 
 48 H        8.1670     4.0430     2.5020 H     1 <1>   0.0730 
 49 H        9.2120     2.6690     2.7260 H     1 <1>   0.0730 
 50 H        7.0080    -1.9640     2.5270 H     1 <1>   0.1440 
 51 H        7.9360    -3.4680    -2.0580 H     1 <1>   0.1440 
 52 H        7.8610    -0.1730    -3.6450 H     1 <1>   0.0730 
 53 H        7.5070    -1.8950    -3.6090 H     1 <1>   0.0730 
 54 H        8.9740    -1.2700    -2.8370 H     1 <1>   0.0730 
 55 H        8.1390    -5.0090    -0.2190 H     1 <1>   0.1440 
 56 H        8.0770    -6.1520     3.2490 H     1 <1>   0.0730 
 57 H        9.0610    -5.7580     1.8440 H     1 <1>   0.0730 
 58 H        7.3680    -6.2460     1.6410 H     1 <1>   0.0730 
@<TRIPOS>BOND
  1   1   2  2   
  2   2   3  am  
  3   2   4  am  
  4   3   5  am  
  5   3   6  1   
  6   4   7  1   
  7   4   8  1   
  8   5   9  2   
  9   5  10  1   
 10   6  11  1   
 11   6  31  1   
 12   6  32  1   
 13   7  10  2   
 14   7  12  1   
 15   8  33  1   
 16   8  34  1   
 17   8  35  1   
 18  10  13  1   
 19  11  14  1   
 20  11  36  1   
 21  11  37  1   
 22  12  15  ar  
 23  12  38  1   
 24  13  15  ar  
 25  13  16  1   
 26  14  39  1   
 27  14  40  1   
 28  14  41  1   
 29  15  17  ar  
 30  16  18  1   
 31  16  42  1   
 32  16  43  1   
 33  17  19  1   
 34  17  20  1   
 35  18  20  1   
 36  18  21  1   
 37  18  44  1   
 38  19  22  ar  
 39  19  23  ar  
 40  20  45  1   
 41  20  46  1   
 42  21  47  1   
 43  21  48  1   
 44  21  49  1   
 45  22  24  1   
 46  22  25  ar  
 47  23  26  ar  
 48  23  50  1   
 49  24  27  1   
 50  25  28  ar  
 51  25  51  1   
 52  26  28  ar  
 53  26  29  1   
 54  27  52  1   
 55  27  53  1   
 56  27  54  1   
 57  28  55  1   
 58  29  30  1   
 59  30  56  1   
 60  30  57  1   
 61  30  58  1   
@<TRIPOS>SUBSTRUCTURE
  1 ****  15 GROUP 4 **** **** 0

# MOE 2024.06 (io_trps.svl 2023.06)
