@<TRIPOS>MOLECULE
1-Allyl-1-[3-(3,4-dimethoxy-phenyl)-[1,2,4]oxadiazol-5-ylmethyl]-3-ethyl-urea
47 48 1 0 0 
SMALL
USER_CHARGES


@<TRIPOS>ATOM
  1 O        0.1540     0.3410    -0.9530 O.2   1 <1>  -0.5700 
  2 C        0.5120     1.3790    -0.4290 C.2   1 <1>   0.6900 
  3 N        1.8230     1.5750    -0.1090 N.am  1 <1>  -0.6600 
  4 N       -0.3910     2.3540    -0.1680 N.am  1 <1>  -0.7300 
  5 C        2.8530     0.5980    -0.5840 C.3   1 <1>   0.3200 
  6 C        2.2500     2.5080     0.9610 C.3   1 <1>   0.2780 
  7 C       -1.8270     2.2820    -0.4880 C.3   1 <1>   0.1400 
  8 C        4.1590     1.2600    -1.0010 C.2   1 <1>   0.2980 
  9 C        2.6950     3.8150     0.3330 C.2   1 <1>  -0.2880 
 10 C       -2.5990     3.0830     0.5530 C.3   1 <1>  -0.2400 
 11 O        4.1840     1.9510    -2.1100 O.3   1 <1>  -0.0190 
 12 N        5.2600     1.2040    -0.3680 N.2   1 <1>  -0.5650 
 13 C        3.9000     4.3730     0.4920 C.2   1 <1>  -0.3000 
 14 N        5.4070     2.3760    -2.1890 N.2   1 <1>  -0.4100 
 15 C        6.0440     1.9440    -1.1590 C.2   1 <1>   0.4620 
 16 C        7.4400     2.2090    -0.8550 C.ar  1 <1>   0.0540 
 17 C        8.0560     1.7000     0.2880 C.ar  1 <1>  -0.1500 
 18 C        8.2290     2.9890    -1.7000 C.ar  1 <1>  -0.1500 
 19 C        9.3840     1.9450     0.5880 C.ar  1 <1>   0.0830 
 20 C        9.5560     3.2560    -1.4180 C.ar  1 <1>  -0.1500 
 21 O        9.8310     1.3640     1.7370 O.3   1 <1>  -0.3630 
 22 C       10.1550     2.7480    -0.2680 C.ar  1 <1>   0.0830 
 23 C       11.1510     0.8760     1.8370 C.3   1 <1>   0.0400 
 24 O       11.4530     3.0290     0.0420 O.3   1 <1>  -0.3630 
 25 C       12.2190     3.9580    -0.6940 C.3   1 <1>   0.0400 
 26 H       -0.0280     3.2770     0.0580 H     1 <1>   0.3700 
 27 H        2.4800     0.0430    -1.4260 H     1 <1>   0.0800 
 28 H        3.0540    -0.1010     0.2070 H     1 <1>   0.0800 
 29 H        3.0580     2.0740     1.5260 H     1 <1>   0.0800 
 30 H        1.4360     2.6880     1.6430 H     1 <1>   0.0800 
 31 H       -2.1520     1.2540    -0.4790 H     1 <1>   0.0800 
 32 H       -1.9940     2.6850    -1.4720 H     1 <1>   0.0800 
 33 H        1.9330     4.2620    -0.2790 H     1 <1>   0.1500 
 34 H       -2.4290     2.6760     1.5340 H     1 <1>   0.0800 
 35 H       -3.6510     3.0290     0.3400 H     1 <1>   0.0800 
 36 H       -2.3000     4.1160     0.5330 H     1 <1>   0.0800 
 37 H        4.6920     3.9520     1.0880 H     1 <1>   0.1500 
 38 H        4.1980     5.2990     0.0300 H     1 <1>   0.1500 
 39 H        7.4880     1.0920     0.9680 H     1 <1>   0.1500 
 40 H        7.7930     3.3970    -2.5960 H     1 <1>   0.1500 
 41 H       10.1040     3.8650    -2.1100 H     1 <1>   0.1500 
 42 H       11.1790     0.1440     2.6230 H     1 <1>   0.0800 
 43 H       11.8050     1.6940     2.0810 H     1 <1>   0.0800 
 44 H       11.4330     0.4270     0.9010 H     1 <1>   0.0800 
 45 H       13.1760     4.0540    -0.2160 H     1 <1>   0.0800 
 46 H       11.7130     4.9070    -0.6930 H     1 <1>   0.0800 
 47 H       12.3480     3.5880    -1.6960 H     1 <1>   0.0800 
@<TRIPOS>BOND
  1   1   2  2   
  2   2   3  am  
  3   2   4  am  
  4   3   5  1   
  5   3   6  1   
  6   4   7  1   
  7   4  26  1   
  8   5   8  1   
  9   5  27  1   
 10   5  28  1   
 11   6   9  1   
 12   6  29  1   
 13   6  30  1   
 14   7  10  1   
 15   7  31  1   
 16   7  32  1   
 17   8  11  1   
 18   8  12  2   
 19   9  13  2   
 20   9  33  1   
 21  10  34  1   
 22  10  35  1   
 23  10  36  1   
 24  11  14  1   
 25  12  15  1   
 26  13  37  1   
 27  13  38  1   
 28  14  15  2   
 29  15  16  1   
 30  16  17  ar  
 31  16  18  ar  
 32  17  19  ar  
 33  17  39  1   
 34  18  20  ar  
 35  18  40  1   
 36  19  21  1   
 37  19  22  ar  
 38  20  22  ar  
 39  20  41  1   
 40  21  23  1   
 41  22  24  1   
 42  23  42  1   
 43  23  43  1   
 44  23  44  1   
 45  24  25  1   
 46  25  45  1   
 47  25  46  1   
 48  25  47  1   
@<TRIPOS>SUBSTRUCTURE
  1 ****  12 GROUP 4 **** **** 0

# MOE 2024.06 (io_trps.svl 2023.06)
