@<TRIPOS>MOLECULE
1-Cyclopentyl-4-[3-(4-trifluoromethyl-phenyl)-[1,2,4]oxadiazol-5-ylmethyl]-piper
51 54 1 0 0 
SMALL
USER_CHARGES


@<TRIPOS>ATOM
  1 F       -0.2630    -0.1060     0.4340 F     1 <1>  -0.3400 
  2 C        0.6160     0.8590     0.6770 C.3   1 <1>   1.1640 
  3 F        0.3250     1.8440    -0.1650 F     1 <1>  -0.3400 
  4 F        0.3420     1.3150     1.8930 F     1 <1>  -0.3400 
  5 C        2.0730     0.3830     0.5570 C.ar  1 <1>  -0.1440 
  6 C        2.4210    -0.9360     0.8290 C.ar  1 <1>  -0.1500 
  7 C        3.0840     1.2610     0.1830 C.ar  1 <1>  -0.1500 
  8 C        3.7330    -1.3590     0.7230 C.ar  1 <1>  -0.1500 
  9 C        4.3940     0.8310     0.0790 C.ar  1 <1>  -0.1500 
 10 C        4.7560    -0.4900     0.3430 C.ar  1 <1>   0.0540 
 11 C        6.1350    -0.9330     0.2270 C.2   1 <1>   0.4620 
 12 N        7.1570    -0.1700     0.0610 N.2   1 <1>  -0.4100 
 13 N        6.4870    -2.2210     0.2770 N.2   1 <1>  -0.5650 
 14 O        8.2110    -0.9200     0.0050 O.3   1 <1>  -0.0190 
 15 C        7.7500    -2.1350     0.1380 C.2   1 <1>   0.2980 
 16 C        8.7750    -3.2740     0.1080 C.3   1 <1>   0.2900 
 17 N        8.1850    -4.6280    -0.0850 N.3   1 <1>  -0.8100 
 18 C        7.5550    -4.7960    -1.4190 C.3   1 <1>   0.1100 
 19 C        9.1450    -5.7230     0.1800 C.3   1 <1>   0.1100 
 20 C        6.8870    -6.1840    -1.5780 C.3   1 <1>   0.3430 
 21 C        8.4800    -7.1180     0.0450 C.3   1 <1>   0.3430 
 22 N        7.0270    -6.9990    -0.3230 N.4   1 <1>  -0.9590 
 23 C        6.2810    -8.2820    -0.3430 C.3   1 <1>   0.4230 
 24 C        4.7710    -8.0580    -0.5180 C.3   1 <1>  -0.1600 
 25 C        6.4310    -9.0360     0.9800 C.3   1 <1>  -0.1600 
 26 C        4.0680    -8.8090     0.6170 C.3   1 <1>  -0.1600 
 27 C        5.1100    -9.7750     1.1680 C.3   1 <1>  -0.1600 
 28 H        1.6670    -1.6460     1.1290 H     1 <1>   0.1500 
 29 H        2.8570     2.2930    -0.0310 H     1 <1>   0.1500 
 30 H        3.9700    -2.3850     0.9430 H     1 <1>   0.1500 
 31 H        5.1550     1.5350    -0.2140 H     1 <1>   0.1500 
 32 H        9.3030    -3.2500     1.0440 H     1 <1>   0.0800 
 33 H        9.4850    -3.0780    -0.6770 H     1 <1>   0.0800 
 34 H        8.2910    -4.6660    -2.1950 H     1 <1>   0.0800 
 35 H        6.8000    -4.0430    -1.5660 H     1 <1>   0.0800 
 36 H        9.5340    -5.6240     1.1790 H     1 <1>   0.0800 
 37 H        9.9770    -5.6580    -0.5010 H     1 <1>   0.0800 
 38 H        7.3390    -6.7040    -2.4060 H     1 <1>   0.0800 
 39 H        5.8460    -6.0380    -1.8140 H     1 <1>   0.0800 
 40 H        8.5830    -7.6390     0.9830 H     1 <1>   0.0800 
 41 H        9.0030    -7.6900    -0.7040 H     1 <1>   0.0800 
 42 H        6.6290    -6.3920     0.4110 H     1 <1>   0.4500 
 43 H        6.6370    -8.9080    -1.1460 H     1 <1>   0.0800 
 44 H        4.4660    -8.4760    -1.4610 H     1 <1>   0.0800 
 45 H        4.4890    -7.0210    -0.4850 H     1 <1>   0.0800 
 46 H        6.5490    -8.3470     1.7990 H     1 <1>   0.0800 
 47 H        7.2560    -9.7260     0.9580 H     1 <1>   0.0800 
 48 H        3.1850    -9.3250     0.2780 H     1 <1>   0.0800 
 49 H        3.7850    -8.1130     1.3900 H     1 <1>   0.0800 
 50 H        4.9240   -10.0230     2.2000 H     1 <1>   0.0800 
 51 H        5.1080   -10.6810     0.5840 H     1 <1>   0.0800 
@<TRIPOS>BOND
  1   1   2  1   
  2   2   3  1   
  3   2   4  1   
  4   2   5  1   
  5   5   6  ar  
  6   5   7  ar  
  7   6   8  ar  
  8   6  28  1   
  9   7   9  ar  
 10   7  29  1   
 11   8  10  ar  
 12   8  30  1   
 13   9  10  ar  
 14   9  31  1   
 15  10  11  1   
 16  11  12  2   
 17  11  13  1   
 18  12  14  1   
 19  13  15  2   
 20  14  15  1   
 21  15  16  1   
 22  16  17  1   
 23  16  32  1   
 24  16  33  1   
 25  17  18  1   
 26  17  19  1   
 27  18  20  1   
 28  18  34  1   
 29  18  35  1   
 30  19  21  1   
 31  19  36  1   
 32  19  37  1   
 33  20  22  1   
 34  20  38  1   
 35  20  39  1   
 36  21  22  1   
 37  21  40  1   
 38  21  41  1   
 39  22  23  1   
 40  22  42  1   
 41  23  24  1   
 42  23  25  1   
 43  23  43  1   
 44  24  26  1   
 45  24  44  1   
 46  24  45  1   
 47  25  27  1   
 48  25  46  1   
 49  25  47  1   
 50  26  27  1   
 51  26  48  1   
 52  26  49  1   
 53  27  50  1   
 54  27  51  1   
@<TRIPOS>SUBSTRUCTURE
  1 ****  13 GROUP 4 **** **** 0

# MOE 2024.06 (io_trps.svl 2023.06)
