@<TRIPOS>MOLECULE
1-Cyclohexyl-3-propyl-1-(3-m-tolyl-[1,2,4]oxadiazol-5-ylmethyl)-urea
54 56 1 0 0 
SMALL
USER_CHARGES


@<TRIPOS>ATOM
  1 O        0.4090     0.3870     0.3440 O.2   1 <1>  -0.5700 
  2 C        0.5190     1.5990     0.3230 C.2   1 <1>   0.6900 
  3 N        1.5510     2.1890    -0.3610 N.am  1 <1>  -0.6600 
  4 N       -0.3820     2.3580     0.9880 N.am  1 <1>  -0.7300 
  5 C        1.7210     3.6450    -0.6560 C.3   1 <1>   0.2200 
  6 C        2.6600     1.3260    -0.8860 C.3   1 <1>   0.3200 
  7 C       -1.5530     1.8650     1.7370 C.3   1 <1>   0.1400 
  8 C        2.0490     4.4490     0.6130 C.3   1 <1>  -0.1600 
  9 C        0.5230     4.2240    -1.4270 C.3   1 <1>  -0.1600 
 10 C        4.0010     1.6930    -0.2680 C.2   1 <1>   0.2980 
 11 C       -2.7730     2.7020     1.3530 C.3   1 <1>  -0.1600 
 12 C        2.2590     5.9320     0.2790 C.3   1 <1>  -0.1600 
 13 C        0.7490     5.7080    -1.7480 C.3   1 <1>  -0.1600 
 14 O        4.2030     1.4200     0.9940 O.3   1 <1>  -0.0190 
 15 N        4.9670     2.2660    -0.8630 N.2   1 <1>  -0.5650 
 16 C       -4.0260     2.2380     2.1040 C.3   1 <1>  -0.2400 
 17 C        1.0540     6.5120    -0.4750 C.3   1 <1>  -0.1600 
 18 N        5.3990     1.8620     1.2240 N.2   1 <1>  -0.4100 
 19 C        5.8560     2.3630     0.1310 C.2   1 <1>   0.4620 
 20 C        7.1640     2.9730    -0.0430 C.ar  1 <1>   0.0540 
 21 C        8.0700     3.0570     1.0170 C.ar  1 <1>  -0.1500 
 22 C        7.5710     3.5010    -1.2690 C.ar  1 <1>  -0.1500 
 23 C        9.3190     3.6360     0.8700 C.ar  1 <1>  -0.1440 
 24 C        8.8160     4.0820    -1.4290 C.ar  1 <1>  -0.1500 
 25 C        9.6900     4.1500    -0.3600 C.ar  1 <1>  -0.1500 
 26 C       10.2830     3.7130     2.0400 C.3   1 <1>  -0.0970 
 27 H       -0.2340     3.3630     0.9790 H     1 <1>   0.3700 
 28 H        2.5710     3.7530    -1.3100 H     1 <1>   0.0800 
 29 H        2.7200     1.4530    -1.9520 H     1 <1>   0.0800 
 30 H        2.4760     0.2850    -0.6950 H     1 <1>   0.0800 
 31 H       -1.3580     1.9480     2.7930 H     1 <1>   0.0800 
 32 H       -1.7300     0.8270     1.5030 H     1 <1>   0.0800 
 33 H        2.9460     4.0610     1.0610 H     1 <1>   0.0800 
 34 H        1.2570     4.3710     1.3320 H     1 <1>   0.0800 
 35 H       -0.3810     4.1380    -0.8570 H     1 <1>   0.0800 
 36 H        0.3950     3.6780    -2.3450 H     1 <1>   0.0800 
 37 H       -2.9440     2.6110     0.2940 H     1 <1>   0.0800 
 38 H       -2.5870     3.7360     1.5860 H     1 <1>   0.0800 
 39 H        3.1430     6.0390    -0.3270 H     1 <1>   0.0800 
 40 H        2.4180     6.4870     1.1880 H     1 <1>   0.0800 
 41 H       -0.1270     6.1110    -2.2280 H     1 <1>   0.0800 
 42 H        1.5730     5.8050    -2.4340 H     1 <1>   0.0800 
 43 H       -4.2430     1.2100     1.8720 H     1 <1>   0.0800 
 44 H       -4.8710     2.8380     1.8150 H     1 <1>   0.0800 
 45 H       -3.8870     2.3320     3.1670 H     1 <1>   0.0800 
 46 H        1.2550     7.5360    -0.7380 H     1 <1>   0.0800 
 47 H        0.1910     6.5030     0.1690 H     1 <1>   0.0800 
 48 H        7.7850     2.6570     1.9750 H     1 <1>   0.1500 
 49 H        6.9040     3.4560    -2.1120 H     1 <1>   0.1500 
 50 H        9.1050     4.4810    -2.3850 H     1 <1>   0.1500 
 51 H       10.6580     4.6020    -0.4890 H     1 <1>   0.1500 
 52 H        9.7990     3.4270     2.9570 H     1 <1>   0.0800 
 53 H       10.6510     4.7170     2.1490 H     1 <1>   0.0800 
 54 H       11.1150     3.0530     1.8700 H     1 <1>   0.0800 
@<TRIPOS>BOND
  1   1   2  2   
  2   2   3  am  
  3   2   4  am  
  4   3   5  1   
  5   3   6  1   
  6   4   7  1   
  7   4  27  1   
  8   5   8  1   
  9   5   9  1   
 10   5  28  1   
 11   6  10  1   
 12   6  29  1   
 13   6  30  1   
 14   7  11  1   
 15   7  31  1   
 16   7  32  1   
 17   8  12  1   
 18   8  33  1   
 19   8  34  1   
 20   9  13  1   
 21   9  35  1   
 22   9  36  1   
 23  10  14  1   
 24  10  15  2   
 25  11  16  1   
 26  11  37  1   
 27  11  38  1   
 28  12  17  1   
 29  12  39  1   
 30  12  40  1   
 31  13  17  1   
 32  13  41  1   
 33  13  42  1   
 34  14  18  1   
 35  15  19  1   
 36  16  43  1   
 37  16  44  1   
 38  16  45  1   
 39  17  46  1   
 40  17  47  1   
 41  18  19  2   
 42  19  20  1   
 43  20  21  ar  
 44  20  22  ar  
 45  21  23  ar  
 46  21  48  1   
 47  22  24  ar  
 48  22  49  1   
 49  23  25  ar  
 50  23  26  1   
 51  24  25  ar  
 52  24  50  1   
 53  25  51  1   
 54  26  52  1   
 55  26  53  1   
 56  26  54  1   
@<TRIPOS>SUBSTRUCTURE
  1 ****  10 GROUP 4 **** **** 0

# MOE 2024.06 (io_trps.svl 2023.06)
