@<TRIPOS>MOLECULE
2-[5-(4-Methoxy-phenyl)-4-methyl-4H-[1,2,4]triazol-3-ylsulfanyl]-N-(1,3,5-trimet
49 51 1 0 0 
SMALL
USER_CHARGES


@<TRIPOS>ATOM
  1 S       -0.1650    -2.2010     0.4260 S.3   1 <1>  -0.2860 
  2 C       -1.7930    -1.4540     0.5330 C.2   1 <1>   0.2420 
  3 C        0.9120    -0.9380     1.2710 C.3   1 <1>   0.1310 
  4 N       -2.0050    -0.2980     1.0490 N.2   1 <1>  -0.3380 
  5 N       -2.8930    -2.0470     0.0800 N.pl3 1 <1>   0.0480 
  6 C        2.3770    -1.3390     1.2390 C.2   1 <1>   0.5690 
  7 N       -3.3180    -0.0910     0.9430 N.2   1 <1>  -0.3380 
  8 C       -3.8460    -1.1400     0.3720 C.2   1 <1>   0.1330 
  9 C       -3.0200    -3.3470    -0.6110 C.3   1 <1>   0.0160 
 10 O        3.1080    -0.8660     2.0770 O.2   1 <1>  -0.5700 
 11 N        2.8000    -2.2020     0.2710 N.am  1 <1>  -0.4930 
 12 C       -5.2480    -1.3080     0.0790 C.ar  1 <1>   0.0530 
 13 C        4.0950    -2.7360     0.0530 C.2   1 <1>   0.0630 
 14 C       -5.9250    -0.3730    -0.6990 C.ar  1 <1>  -0.1500 
 15 C       -5.9700    -2.4020     0.5560 C.ar  1 <1>  -0.1500 
 16 C        4.4050    -4.0830    -0.1490 C.2   1 <1>   0.1080 
 17 C        5.2830    -2.0960    -0.0290 C.2   1 <1>  -0.3320 
 18 C       -7.2620    -0.5330    -1.0090 C.ar  1 <1>  -0.1500 
 19 C       -7.3080    -2.5690     0.2510 C.ar  1 <1>  -0.1500 
 20 N        5.6710    -4.2750    -0.3400 N.2   1 <1>  -0.7070 
 21 C        3.4120    -5.2230    -0.1470 C.3   1 <1>  -0.0590 
 22 N        6.2180    -3.0510    -0.2550 N.pl3 1 <1>   0.3140 
 23 C        5.5970    -0.6120     0.0930 C.3   1 <1>  -0.0600 
 24 C       -7.9650    -1.6320    -0.5420 C.ar  1 <1>   0.0830 
 25 C        7.6660    -2.8570    -0.3960 C.3   1 <1>   0.0160 
 26 O       -9.2700    -1.7200    -0.8930 O.3   1 <1>  -0.3630 
 27 C      -10.0910    -2.7660    -0.4250 C.3   1 <1>   0.0400 
 28 H        0.5690    -0.8560     2.2860 H     1 <1>   0.0800 
 29 H        0.7690    -0.0020     0.7640 H     1 <1>   0.0800 
 30 H       -2.1600    -3.5100    -1.2350 H     1 <1>   0.0800 
 31 H       -3.9030    -3.3490    -1.2240 H     1 <1>   0.0800 
 32 H       -3.0860    -4.1330     0.1200 H     1 <1>   0.0800 
 33 H        2.0690    -2.6040    -0.3130 H     1 <1>   0.3700 
 34 H       -5.3910     0.4890    -1.0610 H     1 <1>   0.1500 
 35 H       -5.4770    -3.1240     1.1810 H     1 <1>   0.1500 
 36 H       -7.7730     0.1940    -1.6140 H     1 <1>   0.1500 
 37 H       -7.8250    -3.4270     0.6380 H     1 <1>   0.1500 
 38 H        2.6700    -5.0670     0.6130 H     1 <1>   0.0800 
 39 H        3.9240    -6.1460     0.0540 H     1 <1>   0.0800 
 40 H        2.9380    -5.2910    -1.1080 H     1 <1>   0.0800 
 41 H        4.6900    -0.0350     0.1140 H     1 <1>   0.0800 
 42 H        6.1850    -0.2820    -0.7430 H     1 <1>   0.0800 
 43 H        6.1360    -0.4260     1.0040 H     1 <1>   0.0800 
 44 H        8.0390    -2.3500     0.4730 H     1 <1>   0.0800 
 45 H        7.8580    -2.2740    -1.2770 H     1 <1>   0.0800 
 46 H        8.1410    -3.8160    -0.4860 H     1 <1>   0.0800 
 47 H      -11.0810    -2.6140    -0.8160 H     1 <1>   0.0800 
 48 H      -10.1150    -2.7380     0.6500 H     1 <1>   0.0800 
 49 H       -9.6990    -3.7030    -0.7790 H     1 <1>   0.0800 
@<TRIPOS>BOND
  1   1   2  1   
  2   1   3  1   
  3   2   4  2   
  4   2   5  1   
  5   3   6  1   
  6   3  28  1   
  7   3  29  1   
  8   4   7  1   
  9   5   8  1   
 10   5   9  1   
 11   6  10  2   
 12   6  11  am  
 13   7   8  2   
 14   8  12  1   
 15   9  30  1   
 16   9  31  1   
 17   9  32  1   
 18  11  13  1   
 19  11  33  1   
 20  12  14  ar  
 21  12  15  ar  
 22  13  16  1   
 23  13  17  2   
 24  14  18  ar  
 25  14  34  1   
 26  15  19  ar  
 27  15  35  1   
 28  16  20  2   
 29  16  21  1   
 30  17  22  1   
 31  17  23  1   
 32  18  24  ar  
 33  18  36  1   
 34  19  24  ar  
 35  19  37  1   
 36  20  22  1   
 37  21  38  1   
 38  21  39  1   
 39  21  40  1   
 40  22  25  1   
 41  23  41  1   
 42  23  42  1   
 43  23  43  1   
 44  24  26  1   
 45  25  44  1   
 46  25  45  1   
 47  25  46  1   
 48  26  27  1   
 49  27  47  1   
 50  27  48  1   
 51  27  49  1   
@<TRIPOS>SUBSTRUCTURE
  1 ****   1 GROUP 4 **** **** 0

# MOE 2024.06 (io_trps.svl 2023.06)
