@<TRIPOS>MOLECULE
N-Bicyclo[2.2.1]hept-2-yl-2-[5-(4-methoxy-phenoxymethyl)-[1,3,4]oxadiazol-2-ylsu
50 53 1 0 0 
SMALL
USER_CHARGES


@<TRIPOS>ATOM
  1 S        0.9070    -2.3850    -0.9660 S.3   1 <1>  -0.2860 
  2 C        1.8660    -1.2960     0.0790 C.2   1 <1>   0.5340 
  3 C       -0.6520    -2.7070    -0.0070 C.3   1 <1>   0.1310 
  4 O        2.9930    -0.8530    -0.3610 O.3   1 <1>  -0.2800 
  5 N        1.5550    -0.8740     1.2430 N.2   1 <1>  -0.3380 
  6 C       -1.8450    -2.0990    -0.7310 C.2   1 <1>   0.5690 
  7 C        3.4010    -0.1060     0.6200 C.2   1 <1>   0.2980 
  8 N        2.5700    -0.0810     1.5980 N.2   1 <1>  -0.3380 
  9 O       -2.5420    -2.8230    -1.3950 O.2   1 <1>  -0.5700 
 10 N       -2.1550    -0.7830    -0.6480 N.am  1 <1>  -0.7300 
 11 C        4.7230     0.6360     0.5230 C.3   1 <1>   0.3000 
 12 C       -1.5120     0.2990     0.1340 C.3   1 <1>   0.2200 
 13 O        5.7850    -0.2830     0.3520 O.3   1 <1>  -0.3630 
 14 C       -2.6250     1.2630     0.8510 C.3   1 <1>  -0.0800 
 15 C       -0.5910     1.2570    -0.8750 C.3   1 <1>  -0.1600 
 16 C        7.0680     0.1470     0.2350 C.ar  1 <1>   0.0830 
 17 C       -1.8180     2.0500     0.1270 C.3   1 <1>  -0.1600 
 18 C       -3.0470     2.8210     1.1210 C.3   1 <1>  -0.1600 
 19 C       -1.0210     2.8160    -0.6230 C.3   1 <1>  -0.0800 
 20 C        8.0330    -0.8280     0.0400 C.ar  1 <1>  -0.1500 
 21 C        7.4490     1.4860     0.2980 C.ar  1 <1>  -0.1500 
 22 C       -2.1170     3.7820     0.1140 C.3   1 <1>  -0.1600 
 23 C        9.3670    -0.4850    -0.0920 C.ar  1 <1>  -0.1500 
 24 C        8.7840     1.8270     0.1660 C.ar  1 <1>  -0.1500 
 25 C        9.7490     0.8520    -0.0290 C.ar  1 <1>   0.0830 
 26 O       11.0330     1.2800    -0.1490 O.3   1 <1>  -0.3620 
 27 C       12.0880     0.3670    -0.3520 C.3   1 <1>   0.0400 
 28 H       -0.5460    -2.3090     0.9830 H     1 <1>   0.0800 
 29 H       -0.7640    -3.7740     0.0470 H     1 <1>   0.0800 
 30 H       -2.9430    -0.4870    -1.2260 H     1 <1>   0.3700 
 31 H        4.8970     1.1890     1.4280 H     1 <1>   0.0800 
 32 H        4.7080     1.2970    -0.3240 H     1 <1>   0.0800 
 33 H       -0.8870    -0.1290     0.9010 H     1 <1>   0.0800 
 34 H       -3.5510     0.8730     0.4520 H     1 <1>   0.0800 
 35 H       -0.7550     0.9880    -1.9080 H     1 <1>   0.0800 
 36 H        0.4550     1.1190    -0.6630 H     1 <1>   0.0800 
 37 H       -2.5620     1.9470    -0.7820 H     1 <1>   0.0800 
 38 H       -1.0660     2.1430     1.0280 H     1 <1>   0.0800 
 39 H       -2.8660     3.0800     2.1540 H     1 <1>   0.0800 
 40 H       -4.0960     2.9770     0.9280 H     1 <1>   0.0800 
 41 H       -0.0980     3.2230    -0.2330 H     1 <1>   0.0800 
 42 H        7.7310    -1.8590    -0.0080 H     1 <1>   0.1500 
 43 H        6.7370     2.2740     0.4490 H     1 <1>   0.1500 
 44 H       -1.6310     4.5610     0.6800 H     1 <1>   0.0800 
 45 H       -2.7430     4.2620    -0.6240 H     1 <1>   0.0800 
 46 H       10.0870    -1.2660    -0.2420 H     1 <1>   0.1500 
 47 H        9.0910     2.8570     0.2140 H     1 <1>   0.1500 
 48 H       13.0040     0.9260    -0.4180 H     1 <1>   0.0800 
 49 H       11.9180    -0.1640    -1.2720 H     1 <1>   0.0800 
 50 H       12.1320    -0.3090     0.4830 H     1 <1>   0.0800 
@<TRIPOS>BOND
  1   1   2  1   
  2   1   3  1   
  3   2   4  1   
  4   2   5  2   
  5   3   6  1   
  6   3  28  1   
  7   3  29  1   
  8   4   7  1   
  9   5   8  1   
 10   6   9  2   
 11   6  10  am  
 12   7   8  2   
 13   7  11  1   
 14  10  12  1   
 15  10  30  1   
 16  11  13  1   
 17  11  31  1   
 18  11  32  1   
 19  12  14  1   
 20  12  15  1   
 21  12  33  1   
 22  13  16  1   
 23  14  17  1   
 24  14  18  1   
 25  14  34  1   
 26  15  19  1   
 27  15  35  1   
 28  15  36  1   
 29  16  20  ar  
 30  16  21  ar  
 31  17  19  1   
 32  17  37  1   
 33  17  38  1   
 34  18  22  1   
 35  18  39  1   
 36  18  40  1   
 37  19  22  1   
 38  19  41  1   
 39  20  23  ar  
 40  20  42  1   
 41  21  24  ar  
 42  21  43  1   
 43  22  44  1   
 44  22  45  1   
 45  23  25  ar  
 46  23  46  1   
 47  24  25  ar  
 48  24  47  1   
 49  25  26  1   
 50  26  27  1   
 51  27  48  1   
 52  27  49  1   
 53  27  50  1   
@<TRIPOS>SUBSTRUCTURE
  1 ****   7 GROUP 4 **** **** 0

# MOE 2024.06 (io_trps.svl 2023.06)
