@<TRIPOS>MOLECULE
3-(2-Methoxy-ethyl)-8-(2-methoxy-5-methyl-phenyl)-1-methyl-5,6,7,8-tetrahydro-1H
55 58 1 0 0 
SMALL
USER_CHARGES


@<TRIPOS>ATOM
  1 O        0.3380     0.3110     0.8260 O.2   1 <1>  -0.5740 
  2 C        1.3900     0.6260     0.3100 C.2   1 <1>   0.6870 
  3 N        1.5170     1.8590    -0.3220 N.am  1 <1>  -0.4250 
  4 N        2.4720    -0.2420     0.3670 N.am  1 <1>  -0.4410 
  5 C        2.7370     2.2850    -0.8290 C.2   1 <1>   0.7000 
  6 C        0.3140     2.7420    -0.4470 C.3   1 <1>   0.1330 
  7 C        3.6760     0.1860    -0.1550 C.2   1 <1>   0.4210 
  8 C        2.3480    -1.5850     1.0080 C.3   1 <1>   0.0530 
  9 O        2.8600     3.3900    -1.3300 O.2   1 <1>  -0.5740 
 10 C        3.8510     1.3930    -0.7350 C.2   1 <1>   0.2710 
 11 C        0.1380     3.5980     0.8070 C.3   1 <1>   0.1130 
 12 N        4.8640    -0.4760    -0.1700 N.pl3 1 <1>  -0.7030 
 13 N        5.2020     1.4550    -1.1070 N.pl3 1 <1>  -0.7670 
 14 O       -0.9480     4.4410     0.6020 O.3   1 <1>  -0.5640 
 15 C        5.7710     0.3110    -0.7410 C.cat 1 <1>   1.0690 
 16 C        5.9120     2.5840    -1.7380 C.3   1 <1>   0.3490 
 17 C       -1.2420     5.2560     1.6900 C.3   1 <1>   0.0330 
 18 N        7.0730     0.0330    -0.9510 N.pl3 1 <1>  -0.5790 
 19 C        7.4030     2.4610    -1.4110 C.3   1 <1>  -0.1670 
 20 C        7.6810    -1.1750    -0.5450 C.ar  1 <1>   0.3050 
 21 C        7.9320     1.0370    -1.6400 C.3   1 <1>   0.1610 
 22 C        7.6610    -1.6030     0.7910 C.ar  1 <1>   0.0760 
 23 C        8.3110    -1.9680    -1.4950 C.ar  1 <1>  -0.1570 
 24 O        7.0310    -0.8180     1.7150 O.3   1 <1>  -0.3680 
 25 C        8.2680    -2.8040     1.1400 C.ar  1 <1>  -0.1570 
 26 C        8.9120    -3.1640    -1.1460 C.ar  1 <1>  -0.1500 
 27 C        7.3260    -0.9470     3.0920 C.3   1 <1>   0.0330 
 28 C        8.8890    -3.5760     0.1740 C.ar  1 <1>  -0.1570 
 29 C        9.5990    -4.0230    -2.1930 C.3   1 <1>  -0.1030 
 30 H       -0.5660     2.1390    -0.5890 H     1 <1>   0.0730 
 31 H        0.4160     3.3870    -1.3030 H     1 <1>   0.0730 
 32 H        1.3190    -1.9030     1.0250 H     1 <1>   0.0730 
 33 H        2.7100    -1.5380     2.0210 H     1 <1>   0.0730 
 34 H        2.9140    -2.3160     0.4580 H     1 <1>   0.0730 
 35 H        1.0090     4.2060     0.9780 H     1 <1>   0.0730 
 36 H       -0.0680     2.9760     1.6620 H     1 <1>   0.0730 
 37 H        5.1140    -1.3510     0.2870 H     1 <1>   0.4450 
 38 H        5.5290     3.5210    -1.3670 H     1 <1>   0.0730 
 39 H        5.7580     2.5490    -2.8040 H     1 <1>   0.0730 
 40 H       -2.0900     5.8640     1.4320 H     1 <1>   0.0730 
 41 H       -0.3950     5.8850     1.9020 H     1 <1>   0.0730 
 42 H       -1.4810     4.6410     2.5400 H     1 <1>   0.0730 
 43 H        7.5670     2.7400    -0.3840 H     1 <1>   0.0730 
 44 H        7.9590     3.1530    -2.0190 H     1 <1>   0.0730 
 45 H        7.9480     0.8190    -2.6950 H     1 <1>   0.0730 
 46 H        8.9410     0.9660    -1.2660 H     1 <1>   0.0730 
 47 H        8.3300    -1.6520    -2.5220 H     1 <1>   0.1430 
 48 H        8.2700    -3.1640     2.1530 H     1 <1>   0.1430 
 49 H        6.8580    -0.1330     3.6150 H     1 <1>   0.0730 
 50 H        8.3930    -0.9010     3.2300 H     1 <1>   0.0730 
 51 H        6.9350    -1.8820     3.4530 H     1 <1>   0.0730 
 52 H        9.3570    -4.5050     0.4560 H     1 <1>   0.1430 
 53 H        9.2580    -3.7720    -3.1820 H     1 <1>   0.0730 
 54 H        9.3900    -5.0630    -2.0180 H     1 <1>   0.0730 
 55 H       10.6640    -3.8740    -2.1470 H     1 <1>   0.0730 
@<TRIPOS>BOND
  1   1   2  2   
  2   2   3  am  
  3   2   4  am  
  4   3   5  am  
  5   3   6  1   
  6   4   7  1   
  7   4   8  1   
  8   5   9  2   
  9   5  10  1   
 10   6  11  1   
 11   6  30  1   
 12   6  31  1   
 13   7  10  2   
 14   7  12  1   
 15   8  32  1   
 16   8  33  1   
 17   8  34  1   
 18  10  13  1   
 19  11  14  1   
 20  11  35  1   
 21  11  36  1   
 22  12  15  ar  
 23  12  37  1   
 24  13  15  ar  
 25  13  16  1   
 26  14  17  1   
 27  15  18  ar  
 28  16  19  1   
 29  16  38  1   
 30  16  39  1   
 31  17  40  1   
 32  17  41  1   
 33  17  42  1   
 34  18  20  1   
 35  18  21  1   
 36  19  21  1   
 37  19  43  1   
 38  19  44  1   
 39  20  22  ar  
 40  20  23  ar  
 41  21  45  1   
 42  21  46  1   
 43  22  24  1   
 44  22  25  ar  
 45  23  26  ar  
 46  23  47  1   
 47  24  27  1   
 48  25  28  ar  
 49  25  48  1   
 50  26  28  ar  
 51  26  29  1   
 52  27  49  1   
 53  27  50  1   
 54  27  51  1   
 55  28  52  1   
 56  29  53  1   
 57  29  54  1   
 58  29  55  1   
@<TRIPOS>SUBSTRUCTURE
  1 ****  12 GROUP 4 **** **** 0

# MOE 2024.06 (io_trps.svl 2023.06)
