@<TRIPOS>MOLECULE
2-Benzenesulfonylamino-N-[2-(4-methyl-piperidin-1-yl)-2-oxo-ethyl]-acetamide
47 48 1 0 0 
SMALL
USER_CHARGES


@<TRIPOS>ATOM
  1 S        1.1600     0.8390     0.3500 S.o2  1 <1>   1.4470 
  2 O       -0.1880     0.3940     0.6080 O.2   1 <1>  -0.6500 
  3 O        1.9810     1.3360     1.4320 O.2   1 <1>  -0.6500 
  4 N        0.9710     2.1260    -0.7020 N.am  1 <1>  -0.9140 
  5 C        2.0680    -0.3850    -0.6350 C.ar  1 <1>  -0.0090 
  6 C        0.3240     3.2930    -0.0730 C.3   1 <1>   0.2570 
  7 C        2.9790     0.0000    -1.6140 C.ar  1 <1>  -0.1500 
  8 C        1.8840    -1.7460    -0.4190 C.ar  1 <1>  -0.1500 
  9 C        0.7330     4.6150    -0.7350 C.2   1 <1>   0.5690 
 10 C        3.6680    -0.9390    -2.3620 C.ar  1 <1>  -0.1500 
 11 C        2.5740    -2.6920    -1.1590 C.ar  1 <1>  -0.1500 
 12 O       -0.0710     5.2000    -1.4170 O.2   1 <1>  -0.5700 
 13 N        1.9840     5.1180    -0.5760 N.am  1 <1>  -0.7300 
 14 C        3.4670    -2.2880    -2.1340 C.ar  1 <1>  -0.1500 
 15 C        3.1350     4.5060     0.1690 C.3   1 <1>   0.2010 
 16 C        4.3430     4.1320    -0.7040 C.2   1 <1>   0.5690 
 17 O        4.4320     4.6480    -1.7960 O.2   1 <1>  -0.5700 
 18 N        5.3070     3.2650    -0.2380 N.am  1 <1>  -0.6600 
 19 C        5.3460     2.6690     1.1310 C.3   1 <1>   0.1400 
 20 C        6.4890     2.9100    -1.0760 C.3   1 <1>   0.1400 
 21 C        5.4630     1.1460     1.0390 C.3   1 <1>  -0.1600 
 22 C        6.6160     1.3880    -1.1860 C.3   1 <1>  -0.1600 
 23 C        6.6730     0.7180     0.1950 C.3   1 <1>  -0.0800 
 24 C        6.7200    -0.8070     0.0580 C.3   1 <1>  -0.2400 
 25 H        0.3280     1.8000    -1.4220 H     1 <1>   0.4200 
 26 H        0.5870     3.3580     0.9680 H     1 <1>   0.0800 
 27 H       -0.7460     3.1850    -0.1290 H     1 <1>   0.0800 
 28 H        3.1580     1.0470    -1.7970 H     1 <1>   0.1500 
 29 H        1.1890    -2.0730     0.3370 H     1 <1>   0.1500 
 30 H        4.3640    -0.6200    -3.1200 H     1 <1>   0.1500 
 31 H        2.4150    -3.7410    -0.9760 H     1 <1>   0.1500 
 32 H        2.2530     5.8640    -1.2240 H     1 <1>   0.3700 
 33 H        4.0030    -3.0200    -2.7130 H     1 <1>   0.1500 
 34 H        2.8000     3.6250     0.6770 H     1 <1>   0.0800 
 35 H        3.4700     5.2070     0.9100 H     1 <1>   0.0800 
 36 H        4.4710     2.9190     1.7030 H     1 <1>   0.0800 
 37 H        6.2020     3.0610     1.6540 H     1 <1>   0.0800 
 38 H        7.3750     3.3190    -0.6220 H     1 <1>   0.0800 
 39 H        6.3990     3.3310    -2.0630 H     1 <1>   0.0800 
 40 H        4.5590     0.7550     0.6110 H     1 <1>   0.0800 
 41 H        5.5520     0.7410     2.0310 H     1 <1>   0.0800 
 42 H        7.5060     1.1510    -1.7410 H     1 <1>   0.0800 
 43 H        5.7760     1.0150    -1.7430 H     1 <1>   0.0800 
 44 H        7.5710     1.0420     0.6950 H     1 <1>   0.0800 
 45 H        5.8290    -1.1730    -0.4220 H     1 <1>   0.0800 
 46 H        6.7970    -1.2670     1.0280 H     1 <1>   0.0800 
 47 H        7.5720    -1.1050    -0.5260 H     1 <1>   0.0800 
@<TRIPOS>BOND
  1   1   2  2   
  2   1   3  2   
  3   1   4  am  
  4   1   5  1   
  5   4   6  1   
  6   4  25  1   
  7   5   7  ar  
  8   5   8  ar  
  9   6   9  1   
 10   6  26  1   
 11   6  27  1   
 12   7  10  ar  
 13   7  28  1   
 14   8  11  ar  
 15   8  29  1   
 16   9  12  2   
 17   9  13  am  
 18  10  14  ar  
 19  10  30  1   
 20  11  14  ar  
 21  11  31  1   
 22  13  15  1   
 23  13  32  1   
 24  14  33  1   
 25  15  16  1   
 26  15  34  1   
 27  15  35  1   
 28  16  17  2   
 29  16  18  am  
 30  18  19  1   
 31  18  20  1   
 32  19  21  1   
 33  19  36  1   
 34  19  37  1   
 35  20  22  1   
 36  20  38  1   
 37  20  39  1   
 38  21  23  1   
 39  21  40  1   
 40  21  41  1   
 41  22  23  1   
 42  22  42  1   
 43  22  43  1   
 44  23  24  1   
 45  23  44  1   
 46  24  45  1   
 47  24  46  1   
 48  24  47  1   
@<TRIPOS>SUBSTRUCTURE
  1 ****   7 GROUP 4 **** **** 0

# MOE 2024.06 (io_trps.svl 2023.06)
