@<TRIPOS>MOLECULE
2-Adamantan-1-yl-N-(3-methylsulfanyl-[1,2,4]thiadiazol-5-yl)-acetamide
42 45 1 0 0 
SMALL
USER_CHARGES


@<TRIPOS>ATOM
  1 S       -0.2010     0.3780    -1.6260 S.3   1 <1>   0.1810 
  2 N        1.0540    -0.4920    -0.9030 N.2   1 <1>  -0.5100 
  3 C       -0.2210     1.5630    -0.3380 C.2   1 <1>   0.4420 
  4 C        1.3150     0.1540     0.1630 C.2   1 <1>   0.5710 
  5 N        0.6540     1.2970     0.5430 N.2   1 <1>  -0.5650 
  6 N       -1.0810     2.6330    -0.3020 N.am  1 <1>  -0.4940 
  7 S        2.5990    -0.3920     1.2830 S.3   1 <1>  -0.2850 
  8 C       -2.0710     3.0170    -1.1580 C.2   1 <1>   0.5690 
  9 C        3.2740    -1.9160     0.4870 C.3   1 <1>  -0.0100 
 10 O       -2.3220     2.4280    -2.1770 O.2   1 <1>  -0.5700 
 11 C       -2.8680     4.2620    -0.8130 C.3   1 <1>  -0.0990 
 12 C       -4.0870     4.0270     0.1080 C.3   1 <1>   0.0000 
 13 C       -4.8100     5.3770     0.3270 C.3   1 <1>  -0.1600 
 14 C       -3.6690     3.4700     1.4920 C.3   1 <1>  -0.1600 
 15 C       -5.0890     3.0380    -0.5350 C.3   1 <1>  -0.1600 
 16 C       -6.0450     5.2020     1.2300 C.3   1 <1>  -0.0800 
 17 C       -4.8990     3.2870     2.4010 C.3   1 <1>  -0.0800 
 18 C       -6.3250     2.8500     0.3650 C.3   1 <1>  -0.0800 
 19 C       -5.5980     4.6450     2.5930 C.3   1 <1>  -0.1600 
 20 C       -7.0170     4.2100     0.5670 C.3   1 <1>  -0.1600 
 21 C       -5.8770     2.3030     1.7330 C.3   1 <1>  -0.1600 
 22 H       -0.9620     3.2060     0.5290 H     1 <1>   0.3700 
 23 H        4.0580    -2.2960     1.1150 H     1 <1>   0.0800 
 24 H        3.6520    -1.6420    -0.4820 H     1 <1>   0.0800 
 25 H        2.4700    -2.6250     0.3980 H     1 <1>   0.0800 
 26 H       -3.2100     4.6910    -1.7380 H     1 <1>   0.0800 
 27 H       -2.2080     4.9800    -0.3610 H     1 <1>   0.0800 
 28 H       -5.1220     5.7840    -0.6200 H     1 <1>   0.0800 
 29 H       -4.1390     6.0860     0.7800 H     1 <1>   0.0800 
 30 H       -2.9750     4.1410     1.9670 H     1 <1>   0.0800 
 31 H       -3.1890     2.5140     1.3830 H     1 <1>   0.0800 
 32 H       -4.6230     2.0800    -0.6900 H     1 <1>   0.0800 
 33 H       -5.3990     3.4040    -1.4980 H     1 <1>   0.0800 
 34 H       -6.5330     6.1520     1.3680 H     1 <1>   0.0800 
 35 H       -4.5920     2.8990     3.3570 H     1 <1>   0.0800 
 36 H       -7.0090     2.1590    -0.0970 H     1 <1>   0.0800 
 37 H       -6.4540     4.5250     3.2340 H     1 <1>   0.0800 
 38 H       -4.9280     5.3380     3.0700 H     1 <1>   0.0800 
 39 H       -7.3430     4.5970    -0.3830 H     1 <1>   0.0800 
 40 H       -7.8890     4.0870     1.1850 H     1 <1>   0.0800 
 41 H       -6.7360     2.1580     2.3650 H     1 <1>   0.0800 
 42 H       -5.4020     1.3460     1.6040 H     1 <1>   0.0800 
@<TRIPOS>BOND
  1   1   2  1   
  2   1   3  1   
  3   2   4  2   
  4   3   5  2   
  5   3   6  1   
  6   4   5  1   
  7   4   7  1   
  8   6   8  am  
  9   6  22  1   
 10   7   9  1   
 11   8  10  2   
 12   8  11  1   
 13   9  23  1   
 14   9  24  1   
 15   9  25  1   
 16  11  12  1   
 17  11  26  1   
 18  11  27  1   
 19  12  13  1   
 20  12  14  1   
 21  12  15  1   
 22  13  16  1   
 23  13  28  1   
 24  13  29  1   
 25  14  17  1   
 26  14  30  1   
 27  14  31  1   
 28  15  18  1   
 29  15  32  1   
 30  15  33  1   
 31  16  19  1   
 32  16  20  1   
 33  16  34  1   
 34  17  19  1   
 35  17  21  1   
 36  17  35  1   
 37  18  20  1   
 38  18  21  1   
 39  18  36  1   
 40  19  37  1   
 41  19  38  1   
 42  20  39  1   
 43  20  40  1   
 44  21  41  1   
 45  21  42  1   
@<TRIPOS>SUBSTRUCTURE
  1 ****   6 GROUP 4 **** **** 0

# MOE 2024.06 (io_trps.svl 2023.06)
