@<TRIPOS>MOLECULE
2-(4-Amino-3-methyl-phenoxy)-1-morpholin-4-yl-ethanone
36 37 1 0 0 
SMALL
USER_CHARGES


@<TRIPOS>ATOM
  1 O        0.5350     1.5290    -2.5410 O.2   1 <1>  -0.5700 
  2 C       -0.0680     1.9510    -1.5800 C.2   1 <1>   0.5690 
  3 N        0.5030     1.9670    -0.3280 N.am  1 <1>  -0.6600 
  4 C       -1.4710     2.5040    -1.8260 C.3   1 <1>   0.1810 
  5 C       -0.1520     2.4790     0.9140 C.3   1 <1>   0.1400 
  6 C        1.8540     1.3810    -0.0780 C.3   1 <1>   0.1400 
  7 O       -2.4390     1.8560    -1.0110 O.3   1 <1>  -0.3620 
  8 C        0.8190     3.3520     1.7270 C.3   1 <1>   0.1200 
  9 C        2.7070     2.3230     0.7870 C.3   1 <1>   0.1200 
 10 C       -3.6430     2.4470    -0.7930 C.ar  1 <1>   0.0820 
 11 O        2.0230     2.6770     1.9570 O.3   1 <1>  -0.5600 
 12 C       -4.3400     2.0520     0.3370 C.ar  1 <1>  -0.1500 
 13 C       -4.1860     3.4140    -1.6320 C.ar  1 <1>  -0.1500 
 14 C       -5.5640     2.6190     0.6540 C.ar  1 <1>  -0.1440 
 15 C       -5.4070     3.9820    -1.3190 C.ar  1 <1>  -0.1500 
 16 C       -6.1060     3.5950    -0.1830 C.ar  1 <1>   0.1000 
 17 C       -6.2930     2.1680     1.9110 C.3   1 <1>  -0.0970 
 18 N       -7.3300     4.1840     0.0930 N.pl3 1 <1>  -0.9000 
 19 H       -1.7450     2.3500    -2.8530 H     1 <1>   0.0800 
 20 H       -1.4750     3.5540    -1.6020 H     1 <1>   0.0800 
 21 H       -0.4650     1.6440     1.5170 H     1 <1>   0.0800 
 22 H       -1.0240     3.0630     0.6820 H     1 <1>   0.0800 
 23 H        2.3660     1.1960    -1.0070 H     1 <1>   0.0800 
 24 H        1.7420     0.4390     0.4300 H     1 <1>   0.0800 
 25 H        0.3900     3.5910     2.6840 H     1 <1>   0.0800 
 26 H        1.0320     4.2680     1.2050 H     1 <1>   0.0800 
 27 H        2.9490     3.2190     0.2420 H     1 <1>   0.0800 
 28 H        3.6210     1.8360     1.0750 H     1 <1>   0.0800 
 29 H       -3.9080     1.2960     0.9660 H     1 <1>   0.1500 
 30 H       -3.6810     3.7290    -2.5240 H     1 <1>   0.1500 
 31 H       -5.8260     4.7360    -1.9600 H     1 <1>   0.1500 
 32 H       -5.6950     1.4790     2.4790 H     1 <1>   0.0800 
 33 H       -7.2140     1.6810     1.6460 H     1 <1>   0.0800 
 34 H       -6.5100     3.0190     2.5320 H     1 <1>   0.0800 
 35 H       -7.8420     4.5280    -0.7240 H     1 <1>   0.4000 
 36 H       -7.9380     3.6360     0.7060 H     1 <1>   0.4000 
@<TRIPOS>BOND
  1   1   2  2   
  2   2   3  am  
  3   2   4  1   
  4   3   5  1   
  5   3   6  1   
  6   4   7  1   
  7   4  19  1   
  8   4  20  1   
  9   5   8  1   
 10   5  21  1   
 11   5  22  1   
 12   6   9  1   
 13   6  23  1   
 14   6  24  1   
 15   7  10  1   
 16   8  11  1   
 17   8  25  1   
 18   8  26  1   
 19   9  11  1   
 20   9  27  1   
 21   9  28  1   
 22  10  12  ar  
 23  10  13  ar  
 24  12  14  ar  
 25  12  29  1   
 26  13  15  ar  
 27  13  30  1   
 28  14  16  ar  
 29  14  17  1   
 30  15  16  ar  
 31  15  31  1   
 32  16  18  1   
 33  17  32  1   
 34  17  33  1   
 35  17  34  1   
 36  18  35  1   
 37  18  36  1   
@<TRIPOS>SUBSTRUCTURE
  1 ****   7 GROUP 4 **** **** 0

# MOE 2024.06 (io_trps.svl 2023.06)
