@<TRIPOS>MOLECULE
4-(2,5-Dimethoxy-phenyl)-2,7-dimethyl-5-oxo-1,4,5,6,7,8-hexahydro-quinoline-3-ca
62 65 1 0 0 
SMALL
USER_CHARGES


@<TRIPOS>ATOM
  1 O        1.0860    -0.8540    -2.4210 O.2   1 <1>  -0.5700 
  2 C        0.7300    -1.7140    -1.6510 C.2   1 <1>   0.4950 
  3 C        1.5550    -2.2970    -0.6470 C.2   1 <1>  -0.1240 
  4 C       -0.6890    -2.2370    -1.8100 C.3   1 <1>  -0.0990 
  5 C        1.1530    -3.3230     0.1430 C.2   1 <1>  -0.0380 
  6 C        2.9550    -1.7040    -0.4580 C.3   1 <1>   0.3400 
  7 C       -1.2360    -2.8500    -0.5080 C.3   1 <1>  -0.0800 
  8 N        2.0040    -3.9120     1.0420 N.pl3 1 <1>  -0.6000 
  9 C       -0.2560    -3.8900     0.0640 C.3   1 <1>  -0.0220 
 10 C        3.8990    -2.6060     0.3620 C.2   1 <1>  -0.1240 
 11 C        2.7980    -0.3500     0.2530 C.ar  1 <1>  -0.1440 
 12 C       -2.6240    -3.4630    -0.7310 C.3   1 <1>  -0.2400 
 13 C        3.3500    -3.6130     1.1010 C.2   1 <1>  -0.0380 
 14 C        5.3040    -2.3010     0.2450 C.2   1 <1>   0.6160 
 15 C        3.2500     0.8380    -0.3160 C.ar  1 <1>   0.0830 
 16 C        2.1860    -0.3070     1.4980 C.ar  1 <1>  -0.1500 
 17 C        4.1110    -4.5280     2.0480 C.3   1 <1>  -0.1020 
 18 O        6.1330    -3.1810     0.3880 O.2   1 <1>  -0.5700 
 19 N        5.7510    -1.0350    -0.0490 N.am  1 <1>  -0.5470 
 20 O        3.8800     0.7600    -1.5170 O.3   1 <1>  -0.3630 
 21 C        3.0730     2.0430     0.3600 C.ar  1 <1>  -0.1500 
 22 C        2.0090     0.8870     2.1750 C.ar  1 <1>   0.0830 
 23 C        7.0080    -0.4770    -0.1610 C.ar  1 <1>   0.4270 
 24 C        4.4330     1.8950    -2.1440 C.3   1 <1>   0.0400 
 25 C        2.4550     2.0700     1.5970 C.ar  1 <1>  -0.1500 
 26 O        1.3950     0.8190     3.3850 O.3   1 <1>  -0.3630 
 27 N        6.9990     0.8440    -0.0560 N.ar  1 <1>  -0.6200 
 28 C        8.1740    -1.2090    -0.3830 C.ar  1 <1>  -0.1500 
 29 C        1.2020     1.9750     4.1680 C.3   1 <1>   0.0400 
 30 C        8.1730     1.4460    -0.1480 C.ar  1 <1>   0.1600 
 31 C        9.3870    -0.5680    -0.4810 C.ar  1 <1>  -0.1500 
 32 C        9.3840     0.8060    -0.3570 C.ar  1 <1>  -0.1430 
 33 C       10.6890     1.5780    -0.4500 C.3   1 <1>  -0.0970 
 34 H       -0.6850    -2.9720    -2.5930 H     1 <1>   0.0800 
 35 H       -1.3220    -1.4240    -2.1190 H     1 <1>   0.0800 
 36 H        3.3830    -1.5940    -1.4390 H     1 <1>   0.0800 
 37 H       -1.3290    -2.0550     0.2150 H     1 <1>   0.0800 
 38 H        1.6550    -4.6760     1.6320 H     1 <1>   0.4000 
 39 H       -0.5870    -4.1720     1.0490 H     1 <1>   0.0800 
 40 H       -0.2410    -4.7710    -0.5520 H     1 <1>   0.0800 
 41 H       -2.5780    -4.2630    -1.4500 H     1 <1>   0.0800 
 42 H       -3.3080    -2.7150    -1.0950 H     1 <1>   0.0800 
 43 H       -3.0140    -3.8530     0.1930 H     1 <1>   0.0800 
 44 H        1.8350    -1.2110     1.9640 H     1 <1>   0.1500 
 45 H        4.3350    -5.4570     1.5550 H     1 <1>   0.0800 
 46 H        3.5250    -4.7290     2.9260 H     1 <1>   0.0800 
 47 H        5.0310    -4.0820     2.3770 H     1 <1>   0.0800 
 48 H        5.0310    -0.3120    -0.1040 H     1 <1>   0.3700 
 49 H        3.4110     2.9710    -0.0600 H     1 <1>   0.1500 
 50 H        4.9040     1.5740    -3.0560 H     1 <1>   0.0800 
 51 H        5.1670     2.3330    -1.4910 H     1 <1>   0.0800 
 52 H        3.6430     2.5900    -2.3650 H     1 <1>   0.0800 
 53 H        2.3330     3.0140     2.0920 H     1 <1>   0.1500 
 54 H        8.1350    -2.2760    -0.4820 H     1 <1>   0.1500 
 55 H        0.7170     1.6820     5.0810 H     1 <1>   0.0800 
 56 H        0.5770     2.6630     3.6260 H     1 <1>   0.0800 
 57 H        2.1600     2.4120     4.3870 H     1 <1>   0.0800 
 58 H        8.1680     2.5180    -0.0520 H     1 <1>   0.1500 
 59 H       10.2960    -1.1190    -0.6470 H     1 <1>   0.1500 
 60 H       11.3690     1.2400     0.3120 H     1 <1>   0.0800 
 61 H       10.5250     2.6320    -0.3180 H     1 <1>   0.0800 
 62 H       11.1410     1.4190    -1.4130 H     1 <1>   0.0800 
@<TRIPOS>BOND
  1   1   2  2   
  2   2   3  1   
  3   2   4  1   
  4   3   5  2   
  5   3   6  1   
  6   4   7  1   
  7   4  34  1   
  8   4  35  1   
  9   5   8  1   
 10   5   9  1   
 11   6  10  1   
 12   6  11  1   
 13   6  36  1   
 14   7   9  1   
 15   7  12  1   
 16   7  37  1   
 17   8  13  1   
 18   8  38  1   
 19   9  39  1   
 20   9  40  1   
 21  10  13  2   
 22  10  14  1   
 23  11  15  ar  
 24  11  16  ar  
 25  12  41  1   
 26  12  42  1   
 27  12  43  1   
 28  13  17  1   
 29  14  18  2   
 30  14  19  am  
 31  15  20  1   
 32  15  21  ar  
 33  16  22  ar  
 34  16  44  1   
 35  17  45  1   
 36  17  46  1   
 37  17  47  1   
 38  19  23  1   
 39  19  48  1   
 40  20  24  1   
 41  21  25  ar  
 42  21  49  1   
 43  22  25  ar  
 44  22  26  1   
 45  23  27  ar  
 46  23  28  ar  
 47  24  50  1   
 48  24  51  1   
 49  24  52  1   
 50  25  53  1   
 51  26  29  1   
 52  27  30  ar  
 53  28  31  ar  
 54  28  54  1   
 55  29  55  1   
 56  29  56  1   
 57  29  57  1   
 58  30  32  ar  
 59  30  58  1   
 60  31  32  ar  
 61  31  59  1   
 62  32  33  1   
 63  33  60  1   
 64  33  61  1   
 65  33  62  1   
@<TRIPOS>SUBSTRUCTURE
  1 ****  11 GROUP 4 **** **** 0

# MOE 2024.06 (io_trps.svl 2023.06)
