@<TRIPOS>MOLECULE
N-Cyclohexyl-2-(2-methoxy-phenoxy)-N-(3-p-tolyl-[1,2,4]oxadiazol-5-ylmethyl)-ace
61 64 1 0 0 
SMALL
USER_CHARGES


@<TRIPOS>ATOM
  1 O       -0.4850     1.5980     1.8220 O.2   1 <1>  -0.5700 
  2 C       -0.2060     2.6660     1.3240 C.2   1 <1>   0.5690 
  3 N        0.8970     2.8000     0.5100 N.am  1 <1>  -0.6600 
  4 C       -1.0980     3.8530     1.7020 C.3   1 <1>   0.1810 
  5 C        1.1920     4.0660    -0.2400 C.3   1 <1>   0.2200 
  6 C        1.8080     1.6160     0.3180 C.3   1 <1>   0.3200 
  7 O       -1.8820     4.3300     0.6180 O.3   1 <1>  -0.3630 
  8 C        1.7010     3.8240    -1.6700 C.3   1 <1>  -0.1600 
  9 C        2.1660     4.9590     0.5430 C.3   1 <1>  -0.1600 
 10 C        3.2040     1.8430     0.8750 C.2   1 <1>   0.2980 
 11 C       -2.9760     3.5990     0.3020 C.ar  1 <1>   0.0820 
 12 C        1.9120     5.1570    -2.4020 C.3   1 <1>  -0.1600 
 13 C        2.3830     6.2950    -0.1820 C.3   1 <1>  -0.1600 
 14 O        3.3370     2.0650     2.1560 O.3   1 <1>  -0.0190 
 15 N        4.2850     1.8460     0.2060 N.2   1 <1>  -0.5650 
 16 C       -2.9370     2.6470    -0.7160 C.ar  1 <1>   0.0820 
 17 C       -4.1500     3.8220     1.0050 C.ar  1 <1>  -0.1500 
 18 C        2.8690     6.0690    -1.6210 C.3   1 <1>  -0.1600 
 19 N        4.6120     2.2330     2.3170 N.2   1 <1>  -0.4100 
 20 C        5.1770     2.1060     1.1680 C.2   1 <1>   0.4620 
 21 O       -1.7780     2.4460    -1.3980 O.3   1 <1>  -0.3630 
 22 C       -4.0850     1.9220    -1.0140 C.ar  1 <1>  -0.1500 
 23 C       -5.2860     3.0900     0.7060 C.ar  1 <1>  -0.1500 
 24 C        6.6020     2.2280     0.9040 C.ar  1 <1>   0.0540 
 25 C       -1.3770     1.1180    -1.6510 C.3   1 <1>   0.0400 
 26 C       -5.2530     2.1410    -0.3020 C.ar  1 <1>  -0.1500 
 27 C        7.1220     2.1180    -0.3870 C.ar  1 <1>  -0.1500 
 28 C        7.5120     2.4650     1.9350 C.ar  1 <1>  -0.1500 
 29 C        8.4780     2.2370    -0.6350 C.ar  1 <1>  -0.1500 
 30 C        8.8690     2.5850     1.6920 C.ar  1 <1>  -0.1500 
 31 C        9.3620     2.4700     0.4040 C.ar  1 <1>  -0.1440 
 32 C       10.8490     2.6020     0.1340 C.3   1 <1>  -0.0970 
 33 H       -0.4870     4.6660     2.0420 H     1 <1>   0.0800 
 34 H       -1.7610     3.5670     2.4990 H     1 <1>   0.0800 
 35 H        0.2760     4.6170    -0.3530 H     1 <1>   0.0800 
 36 H        1.8790     1.3810    -0.7270 H     1 <1>   0.0800 
 37 H        1.4090     0.7430     0.8000 H     1 <1>   0.0800 
 38 H        0.9800     3.2370    -2.2120 H     1 <1>   0.0800 
 39 H        2.6410     3.3030    -1.6530 H     1 <1>   0.0800 
 40 H        3.1180     4.4740     0.6420 H     1 <1>   0.0800 
 41 H        1.7800     5.1500     1.5280 H     1 <1>   0.0800 
 42 H        0.9630     5.6530    -2.5220 H     1 <1>   0.0800 
 43 H        2.3120     4.9710    -3.3840 H     1 <1>   0.0800 
 44 H        3.1080     6.8830     0.3540 H     1 <1>   0.0800 
 45 H        1.4580     6.8470    -0.2010 H     1 <1>   0.0800 
 46 H       -4.1720     4.5660     1.7790 H     1 <1>   0.1500 
 47 H        2.9550     7.0170    -2.1250 H     1 <1>   0.0800 
 48 H        3.8480     5.6200    -1.5980 H     1 <1>   0.0800 
 49 H       -4.0810     1.1930    -1.8020 H     1 <1>   0.1500 
 50 H       -6.1960     3.2610     1.2550 H     1 <1>   0.1500 
 51 H       -0.3560     1.1360    -1.9850 H     1 <1>   0.0800 
 52 H       -2.0020     0.6990    -2.4170 H     1 <1>   0.0800 
 53 H       -1.4540     0.5530    -0.7370 H     1 <1>   0.0800 
 54 H       -6.1380     1.5760    -0.5350 H     1 <1>   0.1500 
 55 H        6.4560     1.9370    -1.2120 H     1 <1>   0.1500 
 56 H        7.1530     2.5580     2.9450 H     1 <1>   0.1500 
 57 H        8.8420     2.1480    -1.6440 H     1 <1>   0.1500 
 58 H        9.5400     2.7690     2.5120 H     1 <1>   0.1500 
 59 H       11.1330     2.0020    -0.7120 H     1 <1>   0.0800 
 60 H       11.4170     2.2750     0.9860 H     1 <1>   0.0800 
 61 H       11.0920     3.6290    -0.0720 H     1 <1>   0.0800 
@<TRIPOS>BOND
  1   1   2  2   
  2   2   3  am  
  3   2   4  1   
  4   3   5  1   
  5   3   6  1   
  6   4   7  1   
  7   4  33  1   
  8   4  34  1   
  9   5   8  1   
 10   5   9  1   
 11   5  35  1   
 12   6  10  1   
 13   6  36  1   
 14   6  37  1   
 15   7  11  1   
 16   8  12  1   
 17   8  38  1   
 18   8  39  1   
 19   9  13  1   
 20   9  40  1   
 21   9  41  1   
 22  10  14  1   
 23  10  15  2   
 24  11  16  ar  
 25  11  17  ar  
 26  12  18  1   
 27  12  42  1   
 28  12  43  1   
 29  13  18  1   
 30  13  44  1   
 31  13  45  1   
 32  14  19  1   
 33  15  20  1   
 34  16  21  1   
 35  16  22  ar  
 36  17  23  ar  
 37  17  46  1   
 38  18  47  1   
 39  18  48  1   
 40  19  20  2   
 41  20  24  1   
 42  21  25  1   
 43  22  26  ar  
 44  22  49  1   
 45  23  26  ar  
 46  23  50  1   
 47  24  27  ar  
 48  24  28  ar  
 49  25  51  1   
 50  25  52  1   
 51  25  53  1   
 52  26  54  1   
 53  27  29  ar  
 54  27  55  1   
 55  28  30  ar  
 56  28  56  1   
 57  29  31  ar  
 58  29  57  1   
 59  30  31  ar  
 60  30  58  1   
 61  31  32  1   
 62  32  59  1   
 63  32  60  1   
 64  32  61  1   
@<TRIPOS>SUBSTRUCTURE
  1 ****   3 GROUP 4 **** **** 0

# MOE 2024.06 (io_trps.svl 2023.06)
