@<TRIPOS>MOLECULE
N-Cyclohexyl-2-[5-(2-fluoro-phenyl)-4-methyl-4H-[1,2,4]triazol-3-ylsulfanyl]-ace
45 47 1 0 0 
SMALL
USER_CHARGES


@<TRIPOS>ATOM
  1 S        0.1890    -1.1220    -1.0770 S.3   1 <1>  -0.2860 
  2 C       -0.3550     0.5900    -1.0250 C.2   1 <1>   0.2420 
  3 C        1.6600    -1.1200    -2.2160 C.3   1 <1>   0.1310 
  4 N        0.0620     1.5060    -1.8240 N.2   1 <1>  -0.3380 
  5 N       -1.2240     1.0280    -0.1210 N.pl3 1 <1>   0.0480 
  6 C        2.9290    -1.4390    -1.4360 C.2   1 <1>   0.5690 
  7 N       -0.5420     2.6270    -1.4360 N.2   1 <1>  -0.3380 
  8 C       -1.3150     2.3410    -0.4230 C.2   1 <1>   0.1330 
  9 C       -1.8470     0.2640     0.9810 C.3   1 <1>   0.0160 
 10 O        3.4070    -2.5410    -1.5440 O.2   1 <1>  -0.5700 
 11 N        3.5440    -0.5320    -0.6370 N.am  1 <1>  -0.7300 
 12 C       -2.1160     3.3090     0.2870 C.ar  1 <1>   0.0530 
 13 C        3.1840     0.8700    -0.3690 C.3   1 <1>   0.2200 
 14 C       -3.4840     3.1600     0.5230 C.ar  1 <1>   0.1900 
 15 C       -1.5300     4.4760     0.7760 C.ar  1 <1>  -0.1500 
 16 C        4.4330     1.7450    -0.5000 C.3   1 <1>  -0.1600 
 17 C        2.5860     0.9760     1.0380 C.3   1 <1>  -0.1600 
 18 F       -4.0990     2.0970     0.0750 F     1 <1>  -0.1900 
 19 C       -4.2390     4.0880     1.2140 C.ar  1 <1>  -0.1500 
 20 C       -2.2670     5.4200     1.4710 C.ar  1 <1>  -0.1500 
 21 C        4.1110     3.2080    -0.1610 C.3   1 <1>  -0.1600 
 22 C        2.2500     2.4350     1.3790 C.3   1 <1>  -0.1600 
 23 C       -3.6220     5.2290     1.6950 C.ar  1 <1>  -0.1500 
 24 C        3.4870     3.3320     1.2370 C.3   1 <1>  -0.1600 
 25 H        1.7300    -0.1660    -2.6990 H     1 <1>   0.0800 
 26 H        1.4800    -1.8810    -2.9510 H     1 <1>   0.0800 
 27 H       -1.1460    -0.4550     1.3640 H     1 <1>   0.0800 
 28 H       -2.7160    -0.2480     0.6090 H     1 <1>   0.0800 
 29 H       -2.1340     0.9310     1.7730 H     1 <1>   0.0800 
 30 H        4.3710    -0.8710    -0.1440 H     1 <1>   0.3700 
 31 H        2.4620     1.2080    -1.0880 H     1 <1>   0.0800 
 32 H       -0.4810     4.6420     0.6010 H     1 <1>   0.1500 
 33 H        4.8050     1.6880    -1.5080 H     1 <1>   0.0800 
 34 H        5.1980     1.3890     0.1680 H     1 <1>   0.0800 
 35 H        3.2910     0.5990     1.7580 H     1 <1>   0.0800 
 36 H        1.6920     0.3820     1.0960 H     1 <1>   0.0800 
 37 H       -5.2900     3.9210     1.3690 H     1 <1>   0.1500 
 38 H       -1.7860     6.3110     1.8380 H     1 <1>   0.1500 
 39 H        3.4220     3.5980    -0.8920 H     1 <1>   0.0800 
 40 H        5.0110     3.7970    -0.2080 H     1 <1>   0.0800 
 41 H        1.8710     2.4950     2.3840 H     1 <1>   0.0800 
 42 H        1.4800     2.7860     0.7120 H     1 <1>   0.0800 
 43 H       -4.1900     5.9670     2.2360 H     1 <1>   0.1500 
 44 H        3.2110     4.3570     1.4170 H     1 <1>   0.0800 
 45 H        4.2160     3.0530     1.9780 H     1 <1>   0.0800 
@<TRIPOS>BOND
  1   1   2  1   
  2   1   3  1   
  3   2   4  2   
  4   2   5  1   
  5   3   6  1   
  6   3  25  1   
  7   3  26  1   
  8   4   7  1   
  9   5   8  1   
 10   5   9  1   
 11   6  10  2   
 12   6  11  am  
 13   7   8  2   
 14   8  12  1   
 15   9  27  1   
 16   9  28  1   
 17   9  29  1   
 18  11  13  1   
 19  11  30  1   
 20  12  14  ar  
 21  12  15  ar  
 22  13  16  1   
 23  13  17  1   
 24  13  31  1   
 25  14  18  1   
 26  14  19  ar  
 27  15  20  ar  
 28  15  32  1   
 29  16  21  1   
 30  16  33  1   
 31  16  34  1   
 32  17  22  1   
 33  17  35  1   
 34  17  36  1   
 35  19  23  ar  
 36  19  37  1   
 37  20  23  ar  
 38  20  38  1   
 39  21  24  1   
 40  21  39  1   
 41  21  40  1   
 42  22  24  1   
 43  22  41  1   
 44  22  42  1   
 45  23  43  1   
 46  24  44  1   
 47  24  45  1   
@<TRIPOS>SUBSTRUCTURE
  1 ****   2 GROUP 4 **** **** 0

# MOE 2024.06 (io_trps.svl 2023.06)
