@<TRIPOS>MOLECULE
1-(4-Ethyl-phenyl)-5-oxo-pyrrolidine-3-carboxylic acid (5-ethyl-[1,3,4]thiadiazo
44 46 1 0 0 
SMALL
USER_CHARGES


@<TRIPOS>ATOM
  1 S       -0.1890    -0.2150    -0.6850 S.3   1 <1>  -0.0800 
  2 C       -1.8510    -0.1030    -0.2040 C.2   1 <1>   0.4420 
  3 C        0.0330     1.3730    -0.0350 C.2   1 <1>   0.1980 
  4 N       -2.1160     1.0150     0.3640 N.2   1 <1>  -0.3380 
  5 N       -2.6470    -1.1960    -0.4820 N.am  1 <1>  -0.4940 
  6 N       -1.0380     1.8520     0.4570 N.2   1 <1>  -0.3380 
  7 C        1.4250     1.9780    -0.1280 C.3   1 <1>   0.0200 
  8 C       -3.9790    -1.3760    -0.2330 C.2   1 <1>   0.5690 
  9 C        1.5090     3.3850     0.4780 C.3   1 <1>  -0.2400 
 10 O       -4.6810    -0.5350     0.2640 O.2   1 <1>  -0.5700 
 11 C       -4.5980    -2.7090    -0.6290 C.3   1 <1>  -0.0190 
 12 C       -6.0330    -2.9040    -0.1130 C.3   1 <1>   0.1400 
 13 C       -3.8390    -3.9390    -0.1080 C.3   1 <1>  -0.0990 
 14 N       -6.1640    -4.3630     0.0810 N.am  1 <1>  -0.4770 
 15 C       -4.9320    -4.9520     0.0900 C.2   1 <1>   0.5690 
 16 C       -7.4320    -4.9680     0.1960 C.ar  1 <1>   0.1170 
 17 O       -4.6790    -6.1230     0.2230 O.2   1 <1>  -0.5700 
 18 C       -8.4840    -4.3090     0.8260 C.ar  1 <1>  -0.1500 
 19 C       -7.6770    -6.2340    -0.3270 C.ar  1 <1>  -0.1500 
 20 C       -9.7350    -4.8910     0.9240 C.ar  1 <1>  -0.1500 
 21 C       -8.9260    -6.8190    -0.2290 C.ar  1 <1>  -0.1500 
 22 C       -9.9660    -6.1510     0.3960 C.ar  1 <1>  -0.1440 
 23 C      -11.3400    -6.7920     0.5030 C.3   1 <1>  -0.0170 
 24 C      -12.2020    -6.4200    -0.7050 C.3   1 <1>  -0.2400 
 25 H       -2.1610    -1.9650    -0.9320 H     1 <1>   0.3700 
 26 H        1.7130     2.0220    -1.1630 H     1 <1>   0.0800 
 27 H        2.1160     1.3320     0.3840 H     1 <1>   0.0800 
 28 H        0.8340     4.0500    -0.0330 H     1 <1>   0.0800 
 29 H        2.5090     3.7710     0.3890 H     1 <1>   0.0800 
 30 H        1.2380     3.3580     1.5190 H     1 <1>   0.0800 
 31 H       -4.6380    -2.7530    -1.7020 H     1 <1>   0.0800 
 32 H       -6.7590    -2.5410    -0.8210 H     1 <1>   0.0800 
 33 H       -6.1760    -2.4160     0.8360 H     1 <1>   0.0800 
 34 H       -3.3800    -3.7490     0.8460 H     1 <1>   0.0800 
 35 H       -3.1110    -4.3000    -0.8100 H     1 <1>   0.0800 
 36 H       -8.3300    -3.3360     1.2530 H     1 <1>   0.1500 
 37 H       -6.8840    -6.7700    -0.8150 H     1 <1>   0.1500 
 38 H      -10.5320    -4.3590     1.4140 H     1 <1>   0.1500 
 39 H       -9.0850    -7.7980    -0.6440 H     1 <1>   0.1500 
 40 H      -11.8230    -6.4660     1.4070 H     1 <1>   0.0800 
 41 H      -11.2370    -7.8620     0.5570 H     1 <1>   0.0800 
 42 H      -12.3240    -5.3530    -0.7580 H     1 <1>   0.0800 
 43 H      -13.1720    -6.8770    -0.6240 H     1 <1>   0.0800 
 44 H      -11.7340    -6.7580    -1.6120 H     1 <1>   0.0800 
@<TRIPOS>BOND
  1   1   2  1   
  2   1   3  1   
  3   2   4  2   
  4   2   5  1   
  5   3   6  2   
  6   3   7  1   
  7   4   6  1   
  8   5   8  am  
  9   5  25  1   
 10   7   9  1   
 11   7  26  1   
 12   7  27  1   
 13   8  10  2   
 14   8  11  1   
 15   9  28  1   
 16   9  29  1   
 17   9  30  1   
 18  11  12  1   
 19  11  13  1   
 20  11  31  1   
 21  12  14  1   
 22  12  32  1   
 23  12  33  1   
 24  13  15  1   
 25  13  34  1   
 26  13  35  1   
 27  14  15  am  
 28  14  16  1   
 29  15  17  2   
 30  16  18  ar  
 31  16  19  ar  
 32  18  20  ar  
 33  18  36  1   
 34  19  21  ar  
 35  19  37  1   
 36  20  22  ar  
 37  20  38  1   
 38  21  22  ar  
 39  21  39  1   
 40  22  23  1   
 41  23  24  1   
 42  23  40  1   
 43  23  41  1   
 44  24  42  1   
 45  24  43  1   
 46  24  44  1   
@<TRIPOS>SUBSTRUCTURE
  1 ****  11 GROUP 4 **** **** 0

# MOE 2024.06 (io_trps.svl 2023.06)
