@<TRIPOS>MOLECULE
N-Ethyl-2,2-dimethyl-N-(3-phenyl-[1,2,4]oxadiazol-5-ylmethyl)-propionamide
42 43 1 0 0 
SMALL
USER_CHARGES


@<TRIPOS>ATOM
  1 O       -0.6150     3.4910    -1.7520 O.2   1 <1>  -0.5700 
  2 C        0.0330     2.9000    -0.9150 C.2   1 <1>   0.5690 
  3 N        1.3410     2.5640    -1.2100 N.am  1 <1>  -0.6600 
  4 C       -0.6940     2.5750     0.4340 C.3   1 <1>   0.0610 
  5 C        2.2030     1.5740    -0.4880 C.3   1 <1>   0.3200 
  6 C        1.9760     3.0970    -2.4530 C.3   1 <1>   0.1400 
  7 C        0.1410     2.9410     1.6810 C.3   1 <1>  -0.2400 
  8 C       -1.1230     1.0940     0.4990 C.3   1 <1>  -0.2400 
  9 C       -1.9970     3.4030     0.5580 C.3   1 <1>  -0.2400 
 10 C        3.4720     2.1970     0.0780 C.2   1 <1>   0.2980 
 11 C        2.4950     4.5130    -2.2060 C.3   1 <1>  -0.2400 
 12 O        3.3660     3.1020     1.0140 O.3   1 <1>  -0.0190 
 13 N        4.6600     1.9170    -0.2770 N.2   1 <1>  -0.5650 
 14 N        4.5910     3.4280     1.2790 N.2   1 <1>  -0.4100 
 15 C        5.3610     2.7350     0.5160 C.2   1 <1>   0.4620 
 16 C        6.8130     2.8030     0.4900 C.ar  1 <1>   0.0540 
 17 C        7.5720     2.0020    -0.3670 C.ar  1 <1>  -0.1500 
 18 C        7.5120     3.6780     1.3250 C.ar  1 <1>  -0.1500 
 19 C        8.9530     2.0690    -0.3900 C.ar  1 <1>  -0.1500 
 20 C        8.8930     3.7510     1.3070 C.ar  1 <1>  -0.1500 
 21 C        9.6180     2.9450     0.4480 C.ar  1 <1>  -0.1500 
 22 H        2.4870     0.8030    -1.1820 H     1 <1>   0.0800 
 23 H        1.6740     1.0930     0.3040 H     1 <1>   0.0800 
 24 H        1.2530     3.1160    -3.2520 H     1 <1>   0.0800 
 25 H        2.7880     2.4620    -2.7650 H     1 <1>   0.0800 
 26 H        0.9510     2.2630     1.8530 H     1 <1>   0.0800 
 27 H       -0.4690     2.9220     2.5670 H     1 <1>   0.0800 
 28 H        0.5440     3.9340     1.5740 H     1 <1>   0.0800 
 29 H       -0.2880     0.4250     0.4740 H     1 <1>   0.0800 
 30 H       -1.7570     0.8630    -0.3400 H     1 <1>   0.0800 
 31 H       -1.6760     0.9010     1.4010 H     1 <1>   0.0800 
 32 H       -1.7730     4.4550     0.5180 H     1 <1>   0.0800 
 33 H       -2.5090     3.1990     1.4820 H     1 <1>   0.0800 
 34 H       -2.6690     3.1770    -0.2510 H     1 <1>   0.0800 
 35 H        1.6860     5.1580    -1.9120 H     1 <1>   0.0800 
 36 H        2.9240     4.9010    -3.1120 H     1 <1>   0.0800 
 37 H        3.2520     4.5200    -1.4440 H     1 <1>   0.0800 
 38 H        7.0730     1.3140    -1.0270 H     1 <1>   0.1500 
 39 H        6.9650     4.3130     2.0000 H     1 <1>   0.1500 
 40 H        9.5120     1.4400    -1.0610 H     1 <1>   0.1500 
 41 H        9.4050     4.4350     1.9620 H     1 <1>   0.1500 
 42 H       10.6930     3.0000     0.4320 H     1 <1>   0.1500 
@<TRIPOS>BOND
  1   1   2  2   
  2   2   3  am  
  3   2   4  1   
  4   3   5  1   
  5   3   6  1   
  6   4   7  1   
  7   4   8  1   
  8   4   9  1   
  9   5  10  1   
 10   5  22  1   
 11   5  23  1   
 12   6  11  1   
 13   6  24  1   
 14   6  25  1   
 15   7  26  1   
 16   7  27  1   
 17   7  28  1   
 18   8  29  1   
 19   8  30  1   
 20   8  31  1   
 21   9  32  1   
 22   9  33  1   
 23   9  34  1   
 24  10  12  1   
 25  10  13  2   
 26  11  35  1   
 27  11  36  1   
 28  11  37  1   
 29  12  14  1   
 30  13  15  1   
 31  14  15  2   
 32  15  16  1   
 33  16  17  ar  
 34  16  18  ar  
 35  17  19  ar  
 36  17  38  1   
 37  18  20  ar  
 38  18  39  1   
 39  19  21  ar  
 40  19  40  1   
 41  20  21  ar  
 42  20  41  1   
 43  21  42  1   
@<TRIPOS>SUBSTRUCTURE
  1 ****  10 GROUP 4 **** **** 0

# MOE 2024.06 (io_trps.svl 2023.06)
