@<TRIPOS>MOLECULE
4-Ethoxy-3-trifluoromethyl-phenylamine
24 24 1 0 0 
SMALL
USER_CHARGES


@<TRIPOS>ATOM
  1 F        0.6160     0.7810    -0.8860 F     1 <1>  -0.3400 
  2 C        0.0390     1.3640     0.1600 C.3   1 <1>   1.1640 
  3 F       -1.1730     0.8210     0.2400 F     1 <1>  -0.3400 
  4 F        0.6870     0.9410     1.2400 F     1 <1>  -0.3400 
  5 C       -0.0080     2.8940     0.0450 C.ar  1 <1>  -0.1440 
  6 C        1.1750     3.6230    -0.0500 C.ar  1 <1>   0.0830 
  7 C       -1.2200     3.5790     0.0350 C.ar  1 <1>  -0.1500 
  8 O        2.3470     2.9300    -0.0390 O.3   1 <1>  -0.3630 
  9 C        1.1310     5.0120    -0.1490 C.ar  1 <1>  -0.1500 
 10 C       -1.2680     4.9610    -0.0700 C.ar  1 <1>   0.1000 
 11 C        3.5960     3.5810    -0.0780 C.3   1 <1>   0.1200 
 12 C       -0.0830     5.6710    -0.1580 C.ar  1 <1>  -0.1500 
 13 N       -2.4840     5.6200    -0.0880 N.pl3 1 <1>  -0.9000 
 14 C        4.6820     2.5120    -0.0210 C.3   1 <1>  -0.2400 
 15 H       -2.1530     3.0490     0.1120 H     1 <1>   0.1500 
 16 H        2.0260     5.5990    -0.2200 H     1 <1>   0.1500 
 17 H        3.6660     4.2390     0.7710 H     1 <1>   0.0800 
 18 H        3.6620     4.1400    -0.9960 H     1 <1>   0.0800 
 19 H       -0.1130     6.7430    -0.2290 H     1 <1>   0.1500 
 20 H       -2.4810     6.5490    -0.5180 H     1 <1>   0.4000 
 21 H       -3.2890     5.0680    -0.3970 H     1 <1>   0.4000 
 22 H        4.5970     1.9470     0.8900 H     1 <1>   0.0800 
 23 H        5.6520     2.9740    -0.0490 H     1 <1>   0.0800 
 24 H        4.5930     1.8490    -0.8630 H     1 <1>   0.0800 
@<TRIPOS>BOND
  1   1   2  1   
  2   2   3  1   
  3   2   4  1   
  4   2   5  1   
  5   5   6  ar  
  6   5   7  ar  
  7   6   8  1   
  8   6   9  ar  
  9   7  10  ar  
 10   7  15  1   
 11   8  11  1   
 12   9  12  ar  
 13   9  16  1   
 14  10  12  ar  
 15  10  13  1   
 16  11  14  1   
 17  11  17  1   
 18  11  18  1   
 19  12  19  1   
 20  13  20  1   
 21  13  21  1   
 22  14  22  1   
 23  14  23  1   
 24  14  24  1   
@<TRIPOS>SUBSTRUCTURE
  1 ****   5 GROUP 4 **** **** 0

# MOE 2024.06 (io_trps.svl 2023.06)
