@<TRIPOS>MOLECULE
8-(2-Methoxy-5-methyl-phenyl)-1-methyl-3-(2-piperidin-1-yl-ethyl)-7,8-dihydro-1H
64 68 1 0 0 
SMALL
USER_CHARGES


@<TRIPOS>ATOM
  1 O       -0.0110     1.5850     0.6710 O.2   1 <1>  -0.5730 
  2 C        1.0380     1.4500     0.0740 C.2   1 <1>   0.6870 
  3 N        1.3680     2.3640    -0.9190 N.am  1 <1>  -0.4240 
  4 N        1.9140     0.4250     0.4000 N.am  1 <1>  -0.4400 
  5 C        2.6290     2.3700    -1.4980 C.2   1 <1>   0.7000 
  6 C        0.3290     3.3430    -1.3720 C.3   1 <1>   0.1340 
  7 C        3.1490     0.4010    -0.2250 C.2   1 <1>   0.4220 
  8 C        1.5530    -0.6090     1.4140 C.3   1 <1>   0.0540 
  9 O        2.9430     3.2670    -2.2590 O.2   1 <1>  -0.5730 
 10 C        3.5350     1.3210    -1.1420 C.2   1 <1>   0.2720 
 11 C        0.2210     4.5170    -0.3800 C.3   1 <1>   0.3380 
 12 N        4.1740    -0.4820    -0.0310 N.pl3 1 <1>  -0.7030 
 13 N        4.8400     0.9690    -1.5000 N.pl3 1 <1>  -0.7660 
 14 N       -1.1880     4.9530    -0.1300 N.4   1 <1>  -0.9600 
 15 C        5.1750    -0.0960    -0.8110 C.cat 1 <1>   1.0690 
 16 C        5.9480     1.4460    -2.3470 C.3   1 <1>   0.3490 
 17 C       -1.1970     6.2630     0.5820 C.3   1 <1>   0.3380 
 18 C       -1.9580     3.9280     0.6450 C.3   1 <1>   0.3380 
 19 N        6.4160    -0.5270    -1.0480 N.pl3 1 <1>  -0.5790 
 20 C        7.0470     0.4000    -2.0410 C.3   1 <1>   0.1620 
 21 C       -2.6350     6.7680     0.7120 C.3   1 <1>  -0.1660 
 22 C       -3.4150     4.3730     0.7820 C.3   1 <1>  -0.1660 
 23 C        7.1010    -1.6040    -0.4460 C.ar  1 <1>   0.3060 
 24 C       -3.5260     5.7540     1.4390 C.3   1 <1>  -0.1660 
 25 C        7.0530    -1.8450     0.9370 C.ar  1 <1>   0.0760 
 26 C        7.8480    -2.4590    -1.2480 C.ar  1 <1>  -0.1560 
 27 O        6.3250    -1.0000     1.7270 O.3   1 <1>  -0.3670 
 28 C        7.7440    -2.9270     1.4730 C.ar  1 <1>  -0.1560 
 29 C        8.5360    -3.5330    -0.7110 C.ar  1 <1>  -0.1490 
 30 C        6.5780    -0.9160     3.1170 C.3   1 <1>   0.0340 
 31 C        8.4800    -3.7610     0.6510 C.ar  1 <1>  -0.1560 
 32 C        9.3490    -4.4570    -1.6010 C.3   1 <1>  -0.1020 
 33 H       -0.6120     2.8280    -1.4530 H     1 <1>   0.0740 
 34 H        0.5710     3.7230    -2.3500 H     1 <1>   0.0740 
 35 H        0.4870    -0.6340     1.5710 H     1 <1>   0.0740 
 36 H        2.0330    -0.3840     2.3510 H     1 <1>   0.0740 
 37 H        1.8630    -1.5840     1.0800 H     1 <1>   0.0740 
 38 H        0.7910     5.3450    -0.7690 H     1 <1>   0.0740 
 39 H        0.6590     4.2220     0.5600 H     1 <1>   0.0740 
 40 H        4.2850    -1.2200     0.6640 H     1 <1>   0.4460 
 41 H       -1.6790     5.0980    -1.0210 H     1 <1>   0.4460 
 42 H        6.2560     2.4370    -2.0590 H     1 <1>   0.0740 
 43 H        5.6700     1.4350    -3.3890 H     1 <1>   0.0740 
 44 H       -0.6130     6.9850     0.0350 H     1 <1>   0.0740 
 45 H       -0.7670     6.1480     1.5630 H     1 <1>   0.0740 
 46 H       -1.5240     3.8060     1.6240 H     1 <1>   0.0740 
 47 H       -1.9250     2.9730     0.1450 H     1 <1>   0.0740 
 48 H        7.9180     0.8710    -1.6160 H     1 <1>   0.0740 
 49 H        7.3250    -0.1280    -2.9370 H     1 <1>   0.0740 
 50 H       -3.0330     6.9730    -0.2670 H     1 <1>   0.0740 
 51 H       -2.6330     7.6940     1.2590 H     1 <1>   0.0740 
 52 H       -3.9470     3.6520     1.3790 H     1 <1>   0.0740 
 53 H       -3.8770     4.3890    -0.1900 H     1 <1>   0.0740 
 54 H       -4.5510     6.0870     1.4220 H     1 <1>   0.0740 
 55 H       -3.2220     5.6840     2.4700 H     1 <1>   0.0740 
 56 H        7.8940    -2.2940    -2.3080 H     1 <1>   0.1440 
 57 H        7.7270    -3.1470     2.5250 H     1 <1>   0.1440 
 58 H        6.0310    -0.0790     3.5120 H     1 <1>   0.0740 
 59 H        7.6320    -0.7670     3.2750 H     1 <1>   0.0740 
 60 H        6.2460    -1.8220     3.5930 H     1 <1>   0.0740 
 61 H        9.0130    -4.5950     1.0800 H     1 <1>   0.1440 
 62 H        9.0010    -4.4170    -2.6180 H     1 <1>   0.0740 
 63 H        9.2660    -5.4740    -1.2580 H     1 <1>   0.0740 
 64 H       10.3850    -4.1690    -1.5780 H     1 <1>   0.0740 
@<TRIPOS>BOND
  1   1   2  2   
  2   2   3  am  
  3   2   4  am  
  4   3   5  am  
  5   3   6  1   
  6   4   7  1   
  7   4   8  1   
  8   5   9  2   
  9   5  10  1   
 10   6  11  1   
 11   6  33  1   
 12   6  34  1   
 13   7  10  2   
 14   7  12  1   
 15   8  35  1   
 16   8  36  1   
 17   8  37  1   
 18  10  13  1   
 19  11  14  1   
 20  11  38  1   
 21  11  39  1   
 22  12  15  ar  
 23  12  40  1   
 24  13  15  ar  
 25  13  16  1   
 26  14  17  1   
 27  14  18  1   
 28  14  41  1   
 29  15  19  ar  
 30  16  20  1   
 31  16  42  1   
 32  16  43  1   
 33  17  21  1   
 34  17  44  1   
 35  17  45  1   
 36  18  22  1   
 37  18  46  1   
 38  18  47  1   
 39  19  20  1   
 40  19  23  1   
 41  20  48  1   
 42  20  49  1   
 43  21  24  1   
 44  21  50  1   
 45  21  51  1   
 46  22  24  1   
 47  22  52  1   
 48  22  53  1   
 49  23  25  ar  
 50  23  26  ar  
 51  24  54  1   
 52  24  55  1   
 53  25  27  1   
 54  25  28  ar  
 55  26  29  ar  
 56  26  56  1   
 57  27  30  1   
 58  28  31  ar  
 59  28  57  1   
 60  29  31  ar  
 61  29  32  1   
 62  30  58  1   
 63  30  59  1   
 64  30  60  1   
 65  31  61  1   
 66  32  62  1   
 67  32  63  1   
 68  32  64  1   
@<TRIPOS>SUBSTRUCTURE
  1 ****   7 GROUP 4 **** **** 0

# MOE 2024.06 (io_trps.svl 2023.06)
