@<TRIPOS>MOLECULE
6-Benzyl-7-(4-ethyl-piperazin-1-yl)-5-methyl-[1,2,4]triazolo[1,5-a]pyrimidine
51 54 1 0 0 
SMALL
USER_CHARGES


@<TRIPOS>ATOM
  1 N        0.0820     0.0210    -1.8790 N.2   1 <1>  -0.6120 
  2 C        1.2030     0.7000    -1.8580 C.2   1 <1>   0.3750 
  3 C       -0.9800     0.6870    -1.4680 C.cat 1 <1>   0.9620 
  4 C        1.3030     2.0360    -1.4420 C.2   1 <1>  -0.1240 
  5 C        2.4160    -0.0900    -2.3220 C.3   1 <1>  -0.1790 
  6 N       -2.2110     0.2220    -1.4110 N.pl3 1 <1>  -0.7000 
  7 N       -1.0040     1.9520    -1.0360 N.pl3 1 <1>  -0.3220 
  8 C        0.1510     2.6780    -1.0160 C.2   1 <1>   0.4790 
  9 C        2.6460     2.7840    -1.4380 C.3   1 <1>   0.1220 
 10 C       -2.9790     1.2360    -0.9380 C.2   1 <1>   0.5030 
 11 N       -2.2950     2.2950    -0.6980 N.2   1 <1>  -0.2600 
 12 N        0.0830     3.9640    -0.5520 N.pl3 1 <1>  -0.8380 
 13 C        3.0940     3.2510    -0.0550 C.ar  1 <1>  -0.1430 
 14 C       -0.2280     4.2470     0.8850 C.3   1 <1>   0.2090 
 15 C        0.1280     5.1680    -1.4390 C.3   1 <1>   0.2090 
 16 C        3.8640     4.4010     0.0550 C.ar  1 <1>  -0.1500 
 17 C        2.7760     2.5420     1.0970 C.ar  1 <1>  -0.1500 
 18 C        0.6910     5.3530     1.4480 C.3   1 <1>   0.3430 
 19 C        1.0170     6.2830    -0.8360 C.3   1 <1>   0.3430 
 20 C        4.2900     4.8490     1.2940 C.ar  1 <1>  -0.1500 
 21 C        3.1990     2.9910     2.3370 C.ar  1 <1>  -0.1500 
 22 N        0.6850     6.6030     0.6030 N.4   1 <1>  -0.9590 
 23 C        3.9530     4.1460     2.4360 C.ar  1 <1>  -0.1500 
 24 C        1.6240     7.5980     1.1830 C.3   1 <1>   0.3430 
 25 C        1.3790     8.9660     0.5580 C.3   1 <1>  -0.2400 
 26 H        2.8320     0.3500    -3.2100 H     1 <1>   0.0800 
 27 H        2.1460    -1.1060    -2.5540 H     1 <1>   0.0800 
 28 H        3.1640    -0.1180    -1.5500 H     1 <1>   0.0800 
 29 H       -2.4670    -0.7240    -1.6890 H     1 <1>   0.4500 
 30 H        2.5560     3.6380    -2.0850 H     1 <1>   0.0800 
 31 H        3.4440     2.1930    -1.8460 H     1 <1>   0.0800 
 32 H       -4.0460     1.1430    -0.7880 H     1 <1>   0.1500 
 33 H       -0.0970     3.3520     1.4690 H     1 <1>   0.0800 
 34 H       -1.2560     4.5510     0.9760 H     1 <1>   0.0800 
 35 H       -0.8730     5.5450    -1.5700 H     1 <1>   0.0800 
 36 H        0.5010     4.8960    -2.4110 H     1 <1>   0.0800 
 37 H        4.1580     4.9480    -0.8240 H     1 <1>   0.1500 
 38 H        2.2100     1.6280     1.0490 H     1 <1>   0.1500 
 39 H        1.6930     4.9610     1.4980 H     1 <1>   0.0800 
 40 H        0.3830     5.5880     2.4530 H     1 <1>   0.0800 
 41 H        0.9170     7.1690    -1.4400 H     1 <1>   0.0800 
 42 H        2.0430     5.9620    -0.8980 H     1 <1>   0.0800 
 43 H        4.9020     5.7320     1.3700 H     1 <1>   0.1500 
 44 H        2.9570     2.4320     3.2260 H     1 <1>   0.1500 
 45 H       -0.2620     7.0050     0.6360 H     1 <1>   0.4500 
 46 H        4.2950     4.4850     3.4010 H     1 <1>   0.1500 
 47 H        2.6440     7.2890     1.0180 H     1 <1>   0.0800 
 48 H        1.4640     7.6700     2.2480 H     1 <1>   0.0800 
 49 H        1.6250     8.9770    -0.4880 H     1 <1>   0.0800 
 50 H        2.0090     9.6900     1.0450 H     1 <1>   0.0800 
 51 H        0.3580     9.2760     0.6960 H     1 <1>   0.0800 
@<TRIPOS>BOND
  1   1   2  2   
  2   1   3  1   
  3   2   4  1   
  4   2   5  1   
  5   3   6  ar  
  6   3   7  ar  
  7   4   8  2   
  8   4   9  1   
  9   5  26  1   
 10   5  27  1   
 11   5  28  1   
 12   6  10  1   
 13   6  29  1   
 14   7   8  1   
 15   7  11  1   
 16   8  12  1   
 17   9  13  1   
 18   9  30  1   
 19   9  31  1   
 20  10  11  2   
 21  10  32  1   
 22  12  14  1   
 23  12  15  1   
 24  13  16  ar  
 25  13  17  ar  
 26  14  18  1   
 27  14  33  1   
 28  14  34  1   
 29  15  19  1   
 30  15  35  1   
 31  15  36  1   
 32  16  20  ar  
 33  16  37  1   
 34  17  21  ar  
 35  17  38  1   
 36  18  22  1   
 37  18  39  1   
 38  18  40  1   
 39  19  22  1   
 40  19  41  1   
 41  19  42  1   
 42  20  23  ar  
 43  20  43  1   
 44  21  23  ar  
 45  21  44  1   
 46  22  24  1   
 47  22  45  1   
 48  23  46  1   
 49  24  25  1   
 50  24  47  1   
 51  24  48  1   
 52  25  49  1   
 53  25  50  1   
 54  25  51  1   
@<TRIPOS>SUBSTRUCTURE
  1 ****  12 GROUP 4 **** **** 0

# MOE 2024.06 (io_trps.svl 2023.06)
