@<TRIPOS>MOLECULE
Morpholine-4-carboxylic acid ethyl-[3-(4-methoxy-phenyl)-[1,2,4]oxadiazol-5-ylme
47 49 1 0 0 
SMALL
USER_CHARGES


@<TRIPOS>ATOM
  1 O       -0.9300     2.4380    -2.2430 O.2   1 <1>  -0.5700 
  2 C       -0.1680     2.3860    -1.2950 C.2   1 <1>   0.6900 
  3 N       -0.6660     2.3950    -0.0210 N.am  1 <1>  -0.6600 
  4 N        1.1820     2.3160    -1.4990 N.am  1 <1>  -0.6600 
  5 C       -0.1510     3.3790     0.9770 C.3   1 <1>   0.1400 
  6 C       -2.0730     1.9740     0.2440 C.3   1 <1>   0.1400 
  7 C        2.0050     1.3620    -0.6980 C.3   1 <1>   0.3200 
  8 C        1.7960     2.8010    -2.7620 C.3   1 <1>   0.1400 
  9 C       -1.1660     4.5110     1.2080 C.3   1 <1>   0.1200 
 10 C       -2.9680     3.1970     0.4960 C.3   1 <1>   0.1200 
 11 C        3.2500     2.0150    -0.1170 C.2   1 <1>   0.2980 
 12 C        2.2500     4.2450    -2.5730 C.3   1 <1>  -0.2400 
 13 O       -2.4300     3.9940     1.5140 O.3   1 <1>  -0.5600 
 14 O        3.1100     2.8570     0.8720 O.3   1 <1>  -0.0190 
 15 N        4.4460     1.8210    -0.5010 N.2   1 <1>  -0.5650 
 16 N        4.3180     3.2400     1.1360 N.2   1 <1>  -0.4100 
 17 C        5.1130     2.6330     0.3270 C.2   1 <1>   0.4620 
 18 C        6.5580     2.7850     0.2820 C.ar  1 <1>   0.0540 
 19 C        7.2230     3.6450     1.1600 C.ar  1 <1>  -0.1500 
 20 C        7.3430     2.0850    -0.6360 C.ar  1 <1>  -0.1500 
 21 C        8.5970     3.8010     1.1280 C.ar  1 <1>  -0.1500 
 22 C        8.7170     2.2350    -0.6750 C.ar  1 <1>  -0.1500 
 23 C        9.3570     3.0920     0.2040 C.ar  1 <1>   0.0820 
 24 O       10.7040     3.1830     0.1020 O.3   1 <1>  -0.3620 
 25 C       11.4510     4.0240     0.9530 C.3   1 <1>   0.0400 
 26 H        0.0440     2.8760     1.9080 H     1 <1>   0.0800 
 27 H        0.7680     3.8140     0.6290 H     1 <1>   0.0800 
 28 H       -2.0950     1.3360     1.1090 H     1 <1>   0.0800 
 29 H       -2.4580     1.4140    -0.5900 H     1 <1>   0.0800 
 30 H        2.3060     0.5490    -1.3340 H     1 <1>   0.0800 
 31 H        1.4240     0.9460     0.1050 H     1 <1>   0.0800 
 32 H        1.0800     2.7510    -3.5660 H     1 <1>   0.0800 
 33 H        2.6370     2.1830    -3.0300 H     1 <1>   0.0800 
 34 H       -1.2500     5.1260     0.3280 H     1 <1>   0.0800 
 35 H       -0.8540     5.1280     2.0320 H     1 <1>   0.0800 
 36 H       -3.9490     2.8840     0.8060 H     1 <1>   0.0800 
 37 H       -3.0590     3.7880    -0.4000 H     1 <1>   0.0800 
 38 H        2.6820     4.6100    -3.4860 H     1 <1>   0.0800 
 39 H        1.4080     4.8660    -2.3230 H     1 <1>   0.0800 
 40 H        2.9900     4.3130    -1.7960 H     1 <1>   0.0800 
 41 H        6.6520     4.2020     1.8830 H     1 <1>   0.1500 
 42 H        6.8730     1.4120    -1.3310 H     1 <1>   0.1500 
 43 H        9.0560     4.4740     1.8260 H     1 <1>   0.1500 
 44 H        9.3050     1.6870    -1.3890 H     1 <1>   0.1500 
 45 H       12.4880     3.9300     0.6880 H     1 <1>   0.0800 
 46 H       11.3030     3.7110     1.9710 H     1 <1>   0.0800 
 47 H       11.1280     5.0400     0.8100 H     1 <1>   0.0800 
@<TRIPOS>BOND
  1   1   2  2   
  2   2   3  am  
  3   2   4  am  
  4   3   5  1   
  5   3   6  1   
  6   4   7  1   
  7   4   8  1   
  8   5   9  1   
  9   5  26  1   
 10   5  27  1   
 11   6  10  1   
 12   6  28  1   
 13   6  29  1   
 14   7  11  1   
 15   7  30  1   
 16   7  31  1   
 17   8  12  1   
 18   8  32  1   
 19   8  33  1   
 20   9  13  1   
 21   9  34  1   
 22   9  35  1   
 23  10  13  1   
 24  10  36  1   
 25  10  37  1   
 26  11  14  1   
 27  11  15  2   
 28  12  38  1   
 29  12  39  1   
 30  12  40  1   
 31  14  16  1   
 32  15  17  1   
 33  16  17  2   
 34  17  18  1   
 35  18  19  ar  
 36  18  20  ar  
 37  19  21  ar  
 38  19  41  1   
 39  20  22  ar  
 40  20  42  1   
 41  21  23  ar  
 42  21  43  1   
 43  22  23  ar  
 44  22  44  1   
 45  23  24  1   
 46  24  25  1   
 47  25  45  1   
 48  25  46  1   
 49  25  47  1   
@<TRIPOS>SUBSTRUCTURE
  1 ****  11 GROUP 4 **** **** 0

# MOE 2024.06 (io_trps.svl 2023.06)
