@<TRIPOS>MOLECULE
N-[3-(4-Chloro-phenyl)-[1,2,4]oxadiazol-5-ylmethyl]-N-ethyl-2,2-dimethyl-propion
42 43 1 0 0 
SMALL
USER_CHARGES


@<TRIPOS>ATOM
  1 CL      -0.9400     1.1110     0.7610 Cl    1 <1>  -0.1770 
  2 C       -2.6310     0.7500     0.5310 C.ar  1 <1>   0.1770 
  3 C       -3.2620     1.1580    -0.6280 C.ar  1 <1>  -0.1500 
  4 C       -3.3200     0.0610     1.5090 C.ar  1 <1>  -0.1500 
  5 C       -4.6040     0.8700    -0.8050 C.ar  1 <1>  -0.1500 
  6 C       -4.6620    -0.2220     1.3210 C.ar  1 <1>  -0.1500 
  7 C       -5.3390     0.1740     0.1620 C.ar  1 <1>   0.0540 
  8 C       -6.7490    -0.1280    -0.0220 C.2   1 <1>   0.4620 
  9 N       -7.4890    -0.7800     0.8020 N.2   1 <1>  -0.4100 
 10 N       -7.4360     0.2600    -1.1020 N.2   1 <1>  -0.5650 
 11 O       -8.6840    -0.8450     0.3030 O.3   1 <1>  -0.0190 
 12 C       -8.5880    -0.2060    -0.8330 C.2   1 <1>   0.2980 
 13 C       -9.8300    -0.0720    -1.7050 C.3   1 <1>   0.3200 
 14 N      -10.8580     0.8270    -1.0720 N.am  1 <1>  -0.6600 
 15 C      -11.9380     0.2400    -0.4320 C.2   1 <1>   0.5690 
 16 C      -10.4820     2.2630    -1.1870 C.3   1 <1>   0.1400 
 17 O      -12.0090    -0.9700    -0.4400 O.2   1 <1>  -0.5700 
 18 C      -13.1360     0.9680     0.2750 C.3   1 <1>   0.0610 
 19 C      -11.1780     2.8900    -2.3930 C.3   1 <1>  -0.2400 
 20 C      -12.8770     2.3820     0.8330 C.3   1 <1>  -0.2400 
 21 C      -13.6140     0.1320     1.4870 C.3   1 <1>  -0.2400 
 22 C      -14.3180     1.0560    -0.7090 C.3   1 <1>  -0.2400 
 23 H       -2.7080     1.6940    -1.3770 H     1 <1>   0.1500 
 24 H       -2.8100    -0.2480     2.4040 H     1 <1>   0.1500 
 25 H       -5.0920     1.1890    -1.7100 H     1 <1>   0.1500 
 26 H       -5.1960    -0.7590     2.0860 H     1 <1>   0.1500 
 27 H      -10.2250    -1.0540    -1.8960 H     1 <1>   0.0800 
 28 H       -9.5430     0.3380    -2.6560 H     1 <1>   0.0800 
 29 H       -9.4160     2.3460    -1.3280 H     1 <1>   0.0800 
 30 H      -10.6950     2.7980    -0.2850 H     1 <1>   0.0800 
 31 H      -10.9020     2.3760    -3.2950 H     1 <1>   0.0800 
 32 H      -10.8790     3.9190    -2.4850 H     1 <1>   0.0800 
 33 H      -12.2440     2.8580    -2.2790 H     1 <1>   0.0800 
 34 H      -11.9990     2.3830     1.4550 H     1 <1>   0.0800 
 35 H      -13.7060     2.7110     1.4340 H     1 <1>   0.0800 
 36 H      -12.7680     3.1000     0.0440 H     1 <1>   0.0800 
 37 H      -12.8100     0.0140     2.1930 H     1 <1>   0.0800 
 38 H      -13.9300    -0.8480     1.1770 H     1 <1>   0.0800 
 39 H      -14.4430     0.6000     1.9860 H     1 <1>   0.0800 
 40 H      -14.0540     1.6420    -1.5690 H     1 <1>   0.0800 
 41 H      -15.1770     1.5020    -0.2400 H     1 <1>   0.0800 
 42 H      -14.5900     0.0710    -1.0480 H     1 <1>   0.0800 
@<TRIPOS>BOND
  1   1   2  1   
  2   2   3  ar  
  3   2   4  ar  
  4   3   5  ar  
  5   3  23  1   
  6   4   6  ar  
  7   4  24  1   
  8   5   7  ar  
  9   5  25  1   
 10   6   7  ar  
 11   6  26  1   
 12   7   8  1   
 13   8   9  2   
 14   8  10  1   
 15   9  11  1   
 16  10  12  2   
 17  11  12  1   
 18  12  13  1   
 19  13  14  1   
 20  13  27  1   
 21  13  28  1   
 22  14  15  am  
 23  14  16  1   
 24  15  17  2   
 25  15  18  1   
 26  16  19  1   
 27  16  29  1   
 28  16  30  1   
 29  18  20  1   
 30  18  21  1   
 31  18  22  1   
 32  19  31  1   
 33  19  32  1   
 34  19  33  1   
 35  20  34  1   
 36  20  35  1   
 37  20  36  1   
 38  21  37  1   
 39  21  38  1   
 40  21  39  1   
 41  22  40  1   
 42  22  41  1   
 43  22  42  1   
@<TRIPOS>SUBSTRUCTURE
  1 ****  12 GROUP 4 **** **** 0

# MOE 2024.06 (io_trps.svl 2023.06)
