@<TRIPOS>MOLECULE
7-(2-Fluoro-benzyl)-3-methyl-8-piperazin-1-yl-3,7-dihydro-purine-2,6-dione
47 50 1 0 0 
SMALL
USER_CHARGES


@<TRIPOS>ATOM
  1 F       -1.0230    -0.0280    -0.9660 F     1 <1>  -0.1980 
  2 C       -1.8510    -0.1890     0.0310 C.ar  1 <1>   0.1820 
  3 C       -2.9470    -1.0220    -0.1280 C.ar  1 <1>  -0.1520 
  4 C       -1.5670     0.4570     1.2190 C.ar  1 <1>  -0.1580 
  5 C       -3.7930    -1.1890     0.9620 C.ar  1 <1>  -0.1580 
  6 C       -3.2160    -1.7140    -1.4580 C.3   1 <1>   0.4920 
  7 C       -2.4110     0.2620     2.2970 C.ar  1 <1>  -0.1580 
  8 C       -3.5200    -0.5570     2.1660 C.ar  1 <1>  -0.1580 
  9 N       -3.4540    -3.1700    -1.2300 N.pl3 1 <1>  -0.7680 
 10 C       -2.8320    -4.0120    -0.3940 C.cat 1 <1>   1.0680 
 11 C       -4.6510    -3.7950    -1.6410 C.2   1 <1>   0.2700 
 12 N       -3.5850    -5.1020    -0.2280 N.pl3 1 <1>  -0.7040 
 13 N       -1.6270    -3.8620     0.2160 N.pl3 1 <1>  -0.5970 
 14 C       -5.7380    -3.4570    -2.5150 C.2   1 <1>   0.6990 
 15 C       -4.7000    -4.9840    -0.9980 C.2   1 <1>   0.4200 
 16 C       -1.3480    -4.4420     1.5730 C.3   1 <1>   0.1600 
 17 C       -0.4090    -3.3280    -0.4950 C.3   1 <1>   0.1600 
 18 O       -5.7930    -2.4210    -3.1440 O.2   1 <1>  -0.5750 
 19 N       -6.7560    -4.3590    -2.6290 N.am  1 <1>  -0.4960 
 20 N       -5.7360    -5.8950    -1.1320 N.am  1 <1>  -0.4420 
 21 C       -0.4850    -3.4980     2.4410 C.3   1 <1>   0.3360 
 22 C        0.5180    -2.4740     0.4080 C.3   1 <1>   0.3360 
 23 C       -6.7910    -5.5510    -1.9670 C.2   1 <1>   0.6860 
 24 C       -5.7330    -7.1950    -0.3990 C.3   1 <1>   0.0510 
 25 N        0.7780    -3.1070     1.7390 N.4   1 <1>  -0.9090 
 26 O       -7.7470    -6.2710    -2.1290 O.2   1 <1>  -0.5750 
 27 H       -0.7130     1.1080     1.2970 H     1 <1>   0.1420 
 28 H       -4.6800    -1.7960     0.8880 H     1 <1>   0.1420 
 29 H       -2.4050    -1.5880    -2.1530 H     1 <1>   0.0710 
 30 H       -4.0830    -1.2530    -1.8970 H     1 <1>   0.0710 
 31 H       -2.2180     0.7620     3.2330 H     1 <1>   0.1420 
 32 H       -4.1860    -0.6860     3.0050 H     1 <1>   0.1420 
 33 H       -3.3420    -5.9240     0.3170 H     1 <1>   0.4440 
 34 H       -0.8400    -5.3850     1.4630 H     1 <1>   0.0710 
 35 H       -2.2740    -4.6240     2.0930 H     1 <1>   0.0710 
 36 H       -0.6940    -2.7470    -1.3530 H     1 <1>   0.0710 
 37 H        0.1610    -4.1640    -0.8640 H     1 <1>   0.0710 
 38 H       -7.5420    -4.1390    -3.2390 H     1 <1>   0.3630 
 39 H       -0.2470    -3.9850     3.3740 H     1 <1>   0.0710 
 40 H       -1.0590    -2.6130     2.6700 H     1 <1>   0.0710 
 41 H        0.0640    -1.5120     0.5660 H     1 <1>   0.0710 
 42 H        1.4520    -2.3030    -0.1040 H     1 <1>   0.0710 
 43 H       -4.8100    -7.7180    -0.5770 H     1 <1>   0.0710 
 44 H       -6.5420    -7.8250    -0.7300 H     1 <1>   0.0710 
 45 H       -5.8520    -7.0200     0.6560 H     1 <1>   0.0710 
 46 H        1.3960    -3.9230     1.6300 H     1 <1>   0.4440 
 47 H        1.3000    -2.4410     2.3300 H     1 <1>   0.4440 
@<TRIPOS>BOND
  1   1   2  1   
  2   2   3  ar  
  3   2   4  ar  
  4   3   5  ar  
  5   3   6  1   
  6   4   7  ar  
  7   4  27  1   
  8   5   8  ar  
  9   5  28  1   
 10   6   9  1   
 11   6  29  1   
 12   6  30  1   
 13   7   8  ar  
 14   7  31  1   
 15   8  32  1   
 16   9  10  ar  
 17   9  11  1   
 18  10  12  ar  
 19  10  13  ar  
 20  11  14  1   
 21  11  15  2   
 22  12  15  1   
 23  12  33  1   
 24  13  16  1   
 25  13  17  1   
 26  14  18  2   
 27  14  19  am  
 28  15  20  1   
 29  16  21  1   
 30  16  34  1   
 31  16  35  1   
 32  17  22  1   
 33  17  36  1   
 34  17  37  1   
 35  19  23  am  
 36  19  38  1   
 37  20  23  am  
 38  20  24  1   
 39  21  25  1   
 40  21  39  1   
 41  21  40  1   
 42  22  25  1   
 43  22  41  1   
 44  22  42  1   
 45  23  26  2   
 46  24  43  1   
 47  24  44  1   
 48  24  45  1   
 49  25  46  1   
 50  25  47  1   
@<TRIPOS>SUBSTRUCTURE
  1 ****   9 GROUP 4 **** **** 0

# MOE 2024.06 (io_trps.svl 2023.06)
