@<TRIPOS>MOLECULE
3-Cyclohexyl-1-[3-(3,4-dimethoxy-phenyl)-[1,2,4]oxadiazol-5-ylmethyl]-1-ethyl-ur
56 58 1 0 0 
SMALL
USER_CHARGES


@<TRIPOS>ATOM
  1 O       -0.0080     1.2860     2.2290 O.2   1 <1>  -0.5700 
  2 C        0.3080     1.2920     1.0540 C.2   1 <1>   0.6900 
  3 N        1.6170     1.1580     0.6830 N.am  1 <1>  -0.6600 
  4 N       -0.6380     1.4370     0.0970 N.am  1 <1>  -0.7300 
  5 C        2.6790     1.1060     1.7400 C.3   1 <1>   0.3200 
  6 C        2.0350     0.7400    -0.6830 C.3   1 <1>   0.1400 
  7 C       -2.0730     1.6450     0.3330 C.3   1 <1>   0.2200 
  8 C        3.8930     1.9570     1.3950 C.2   1 <1>   0.2980 
  9 C        2.2450     1.9670    -1.5690 C.3   1 <1>  -0.2400 
 10 C       -2.8630     0.6490    -0.5220 C.3   1 <1>  -0.1600 
 11 C       -2.4300     3.0910    -0.0250 C.3   1 <1>  -0.1600 
 12 O        3.7740     3.2580     1.4310 O.3   1 <1>  -0.0190 
 13 N        5.0400     1.5240     1.0620 N.2   1 <1>  -0.5650 
 14 C       -4.3750     0.8900    -0.4010 C.3   1 <1>  -0.1600 
 15 C       -3.9410     3.3370     0.0960 C.3   1 <1>  -0.1600 
 16 N        4.9460     3.6920     1.0870 N.2   1 <1>  -0.4100 
 17 C        5.6980     2.6720     0.8680 C.2   1 <1>   0.4620 
 18 C       -4.7360     2.3390    -0.7570 C.3   1 <1>  -0.1600 
 19 C        7.0910     2.7200     0.4550 C.ar  1 <1>   0.0540 
 20 C        7.8420     1.5620     0.2580 C.ar  1 <1>  -0.1500 
 21 C        7.7400     3.9350     0.2390 C.ar  1 <1>  -0.1500 
 22 C        9.1690     1.5940    -0.1330 C.ar  1 <1>   0.0830 
 23 C        9.0620     3.9940    -0.1620 C.ar  1 <1>  -0.1500 
 24 O        9.7590     0.3730    -0.2680 O.3   1 <1>  -0.3630 
 25 C        9.7970     2.8290    -0.3630 C.ar  1 <1>   0.0830 
 26 C       11.1180     0.1830     0.0560 C.3   1 <1>   0.0400 
 27 O       11.0910     2.8700    -0.7920 O.3   1 <1>  -0.3630 
 28 C       11.7110     4.0690    -1.2010 C.3   1 <1>   0.0400 
 29 H       -0.3170     1.5950    -0.8520 H     1 <1>   0.3700 
 30 H        2.9930     0.0860     1.8640 H     1 <1>   0.0800 
 31 H        2.2960     1.4480     2.6850 H     1 <1>   0.0800 
 32 H        1.2790     0.1020    -1.1110 H     1 <1>   0.0800 
 33 H        2.9480     0.1700    -0.6290 H     1 <1>   0.0800 
 34 H       -2.3010     1.4730     1.3730 H     1 <1>   0.0800 
 35 H        1.3530     2.5640    -1.6180 H     1 <1>   0.0800 
 36 H        2.5020     1.6530    -2.5640 H     1 <1>   0.0800 
 37 H        3.0510     2.5720    -1.1940 H     1 <1>   0.0800 
 38 H       -2.6360    -0.3520    -0.1980 H     1 <1>   0.0800 
 39 H       -2.5740     0.7500    -1.5530 H     1 <1>   0.0800 
 40 H       -2.1210     3.3000    -1.0340 H     1 <1>   0.0800 
 41 H       -1.9070     3.7580     0.6380 H     1 <1>   0.0800 
 42 H       -4.6880     0.6830     0.6080 H     1 <1>   0.0800 
 43 H       -4.9010     0.2150    -1.0540 H     1 <1>   0.0800 
 44 H       -4.1700     4.3420    -0.2160 H     1 <1>   0.0800 
 45 H       -4.2350     3.2380     1.1270 H     1 <1>   0.0800 
 46 H       -5.7900     2.4950    -0.6050 H     1 <1>   0.0800 
 47 H       -4.5250     2.5130    -1.7990 H     1 <1>   0.0800 
 48 H        7.3850     0.6020     0.4140 H     1 <1>   0.1500 
 49 H        7.1970     4.8530     0.3860 H     1 <1>   0.1500 
 50 H        9.4980     4.9630    -0.3120 H     1 <1>   0.1500 
 51 H       11.2740    -0.8630     0.2500 H     1 <1>   0.0800 
 52 H       11.3570     0.7610     0.9310 H     1 <1>   0.0800 
 53 H       11.7200     0.4890    -0.7800 H     1 <1>   0.0800 
 54 H       12.6960     3.8290    -1.5600 H     1 <1>   0.0800 
 55 H       11.7830     4.7320    -0.3580 H     1 <1>   0.0800 
 56 H       11.1320     4.5090    -1.9930 H     1 <1>   0.0800 
@<TRIPOS>BOND
  1   1   2  2   
  2   2   3  am  
  3   2   4  am  
  4   3   5  1   
  5   3   6  1   
  6   4   7  1   
  7   4  29  1   
  8   5   8  1   
  9   5  30  1   
 10   5  31  1   
 11   6   9  1   
 12   6  32  1   
 13   6  33  1   
 14   7  10  1   
 15   7  11  1   
 16   7  34  1   
 17   8  12  1   
 18   8  13  2   
 19   9  35  1   
 20   9  36  1   
 21   9  37  1   
 22  10  14  1   
 23  10  38  1   
 24  10  39  1   
 25  11  15  1   
 26  11  40  1   
 27  11  41  1   
 28  12  16  1   
 29  13  17  1   
 30  14  18  1   
 31  14  42  1   
 32  14  43  1   
 33  15  18  1   
 34  15  44  1   
 35  15  45  1   
 36  16  17  2   
 37  17  19  1   
 38  18  46  1   
 39  18  47  1   
 40  19  20  ar  
 41  19  21  ar  
 42  20  22  ar  
 43  20  48  1   
 44  21  23  ar  
 45  21  49  1   
 46  22  24  1   
 47  22  25  ar  
 48  23  25  ar  
 49  23  50  1   
 50  24  26  1   
 51  25  27  1   
 52  26  51  1   
 53  26  52  1   
 54  26  53  1   
 55  27  28  1   
 56  28  54  1   
 57  28  55  1   
 58  28  56  1   
@<TRIPOS>SUBSTRUCTURE
  1 ****   8 GROUP 4 **** **** 0

# MOE 2024.06 (io_trps.svl 2023.06)
