@<TRIPOS>MOLECULE
7-[3-(3,4-Dimethyl-phenoxy)-2-hydroxy-propyl]-8-(2-hydroxy-ethylamino)-1,3-dimet
58 60 1 0 0 
SMALL
USER_CHARGES


@<TRIPOS>ATOM
  1 O        1.3910     0.1330    -0.1370 O.2   1 <1>  -0.5740 
  2 C        2.4010     0.7900    -0.2840 C.2   1 <1>   0.6870 
  3 N        2.3170     2.1250    -0.6640 N.am  1 <1>  -0.4250 
  4 N        3.6410     0.2080    -0.0630 N.am  1 <1>  -0.4410 
  5 C        3.4550     2.9150    -0.7800 C.2   1 <1>   0.7000 
  6 C        0.9680     2.7220    -0.9150 C.3   1 <1>   0.0530 
  7 C        4.7610     1.0090    -0.1630 C.2   1 <1>   0.4210 
  8 C        3.7560    -1.2280     0.3280 C.3   1 <1>   0.0530 
  9 O        3.3660     4.0830    -1.1210 O.2   1 <1>  -0.5740 
 10 C        4.7280     2.3160    -0.5030 C.2   1 <1>   0.2710 
 11 N        6.0540     0.6550     0.0440 N.pl3 1 <1>  -0.7030 
 12 N        6.0710     2.7570    -0.5020 N.pl3 1 <1>  -0.7670 
 13 C        6.8220     1.7080    -0.1620 C.cat 1 <1>   1.0690 
 14 C        6.5060     4.1570    -0.7920 C.3   1 <1>   0.3490 
 15 N        8.1470     1.7070    -0.0330 N.pl3 1 <1>  -0.7170 
 16 C        7.0480     4.8520     0.4820 C.3   1 <1>   0.1940 
 17 C        9.0100     0.6670     0.6020 C.3   1 <1>   0.1610 
 18 O        6.2120     5.8930     0.8680 O.3   1 <1>  -0.6830 
 19 C        8.4840     5.3610     0.3260 C.3   1 <1>   0.1130 
 20 C        9.1850    -0.5980    -0.2570 C.3   1 <1>   0.1130 
 21 O        9.2640     4.2940    -0.1820 O.3   1 <1>  -0.3680 
 22 O        7.9710    -1.2650    -0.4070 O.3   1 <1>  -0.6830 
 23 C       10.5860     4.4450    -0.4330 C.ar  1 <1>   0.0760 
 24 C       11.3480     5.4960     0.0650 C.ar  1 <1>  -0.1560 
 25 C       11.1880     3.4850    -1.2300 C.ar  1 <1>  -0.1560 
 26 C       12.7000     5.5860    -0.2270 C.ar  1 <1>  -0.1500 
 27 C       12.5350     3.5720    -1.5220 C.ar  1 <1>  -0.1560 
 28 C       13.2990     4.6160    -1.0250 C.ar  1 <1>  -0.1500 
 29 C       13.5040     6.7500     0.3370 C.3   1 <1>  -0.1030 
 30 C       14.7810     4.6760    -1.3710 C.3   1 <1>  -0.1030 
 31 H        0.3160     1.9950    -1.3680 H     1 <1>   0.0730 
 32 H        1.0360     3.5670    -1.5780 H     1 <1>   0.0730 
 33 H        0.5370     3.0420     0.0170 H     1 <1>   0.0730 
 34 H        2.9030    -1.7840    -0.0250 H     1 <1>   0.0730 
 35 H        3.7990    -1.3080     1.4010 H     1 <1>   0.0730 
 36 H        4.6400    -1.6650    -0.1000 H     1 <1>   0.0730 
 37 H        6.4790    -0.2750     0.1550 H     1 <1>   0.4450 
 38 H        5.6880     4.7280    -1.1930 H     1 <1>   0.0730 
 39 H        7.2630     4.1250    -1.5570 H     1 <1>   0.0730 
 40 H        8.6400     2.5900    -0.2160 H     1 <1>   0.4450 
 41 H        7.0350     4.1550     1.3020 H     1 <1>   0.0730 
 42 H        8.6050     0.3920     1.5620 H     1 <1>   0.0730 
 43 H        9.9820     1.0960     0.7770 H     1 <1>   0.0730 
 44 H        6.2130     6.6370     0.2320 H     1 <1>   0.3950 
 45 H        8.8770     5.6510     1.2850 H     1 <1>   0.0730 
 46 H        8.5410     6.1790    -0.3720 H     1 <1>   0.0730 
 47 H        9.8740    -1.2710     0.2250 H     1 <1>   0.0730 
 48 H        9.5670    -0.3480    -1.2320 H     1 <1>   0.0730 
 49 H        8.1200    -2.1110    -0.8880 H     1 <1>   0.3950 
 50 H       10.9080     6.2520     0.6850 H     1 <1>   0.1440 
 51 H       10.6130     2.6740    -1.6320 H     1 <1>   0.1440 
 52 H       12.9910     2.8210    -2.1430 H     1 <1>   0.1440 
 53 H       12.8860     7.4000     0.9290 H     1 <1>   0.0730 
 54 H       13.9270     7.3270    -0.4650 H     1 <1>   0.0730 
 55 H       14.2990     6.3820     0.9600 H     1 <1>   0.0730 
 56 H       15.3710     4.6430    -0.4730 H     1 <1>   0.0730 
 57 H       14.9990     5.5850    -1.9020 H     1 <1>   0.0730 
 58 H       15.0680     3.8470    -1.9920 H     1 <1>   0.0730 
@<TRIPOS>BOND
  1   1   2  2   
  2   2   3  am  
  3   2   4  am  
  4   3   5  am  
  5   3   6  1   
  6   4   7  1   
  7   4   8  1   
  8   5   9  2   
  9   5  10  1   
 10   6  31  1   
 11   6  32  1   
 12   6  33  1   
 13   7  10  2   
 14   7  11  1   
 15   8  34  1   
 16   8  35  1   
 17   8  36  1   
 18  10  12  1   
 19  11  13  ar  
 20  11  37  1   
 21  12  13  ar  
 22  12  14  1   
 23  13  15  ar  
 24  14  16  1   
 25  14  38  1   
 26  14  39  1   
 27  15  17  1   
 28  15  40  1   
 29  16  18  1   
 30  16  19  1   
 31  16  41  1   
 32  17  20  1   
 33  17  42  1   
 34  17  43  1   
 35  18  44  1   
 36  19  21  1   
 37  19  45  1   
 38  19  46  1   
 39  20  22  1   
 40  20  47  1   
 41  20  48  1   
 42  21  23  1   
 43  22  49  1   
 44  23  24  ar  
 45  23  25  ar  
 46  24  26  ar  
 47  24  50  1   
 48  25  27  ar  
 49  25  51  1   
 50  26  28  ar  
 51  26  29  1   
 52  27  28  ar  
 53  27  52  1   
 54  28  30  1   
 55  29  53  1   
 56  29  54  1   
 57  29  55  1   
 58  30  56  1   
 59  30  57  1   
 60  30  58  1   
@<TRIPOS>SUBSTRUCTURE
  1 ****  13 GROUP 4 **** **** 0

# MOE 2024.06 (io_trps.svl 2023.06)
