@<TRIPOS>MOLECULE
N-{4-[2-(3-Hydroxy-5-methyl-2-oxo-2,3-dihydro-1H-indol-3-yl)-acetyl]-phenyl}-2,2
52 54 1 0 0 
SMALL
USER_CHARGES


@<TRIPOS>ATOM
  1 O       -0.4370    -0.4320    -0.7010 O.2   1 <1>  -0.5700 
  2 C       -1.5810    -0.0580    -0.5860 C.2   1 <1>   0.5690 
  3 N       -2.6600    -0.8640    -0.7280 N.am  1 <1>  -0.5470 
  4 C       -2.0440     1.3780    -0.2330 C.3   1 <1>   0.4850 
  5 C       -3.8320    -0.1630    -0.5040 C.ar  1 <1>   0.1170 
  6 O       -1.7730     2.2820    -1.2570 O.3   1 <1>  -0.6800 
  7 C       -3.5560     1.1590    -0.2100 C.ar  1 <1>  -0.1430 
  8 C       -1.4140     1.8580     1.0800 C.3   1 <1>  -0.0990 
  9 C       -5.1350    -0.6260    -0.5540 C.ar  1 <1>  -0.1500 
 10 C       -4.5900     2.0470     0.0290 C.ar  1 <1>  -0.1500 
 11 C       -1.7420     3.2980     1.4350 C.2   1 <1>   0.4230 
 12 C       -6.1680     0.2620    -0.3060 C.ar  1 <1>  -0.1500 
 13 C       -5.9020     1.5950    -0.0150 C.ar  1 <1>  -0.1440 
 14 O       -2.7100     3.4550     2.1370 O.2   1 <1>  -0.5700 
 15 C       -0.9050     4.4030     1.0060 C.ar  1 <1>   0.0860 
 16 C       -7.0390     2.5620     0.2570 C.3   1 <1>  -0.0970 
 17 C       -1.1620     5.6940     1.4790 C.ar  1 <1>  -0.1500 
 18 C        0.1810     4.2760     0.1310 C.ar  1 <1>  -0.1500 
 19 C       -0.3900     6.7800     1.1150 C.ar  1 <1>  -0.1500 
 20 C        0.9560     5.3600    -0.2340 C.ar  1 <1>  -0.1500 
 21 C        0.6910     6.6340     0.2530 C.ar  1 <1>   0.1170 
 22 N        1.5040     7.6950    -0.1570 N.am  1 <1>  -0.5470 
 23 C        1.7060     8.9490     0.3620 C.2   1 <1>   0.5690 
 24 O        1.1650     9.3260     1.3740 O.2   1 <1>  -0.5700 
 25 C        2.6680     9.9190    -0.3730 C.3   1 <1>   0.0610 
 26 C        3.7770    10.3860     0.5890 C.3   1 <1>  -0.2400 
 27 C        3.3530     9.2830    -1.6040 C.3   1 <1>  -0.2400 
 28 C        1.8860    11.1550    -0.8560 C.3   1 <1>  -0.2400 
 29 H       -2.5780    -1.8570    -0.9450 H     1 <1>   0.3700 
 30 H       -2.3370     2.0540    -2.0200 H     1 <1>   0.4000 
 31 H       -0.3510     1.7180     1.0430 H     1 <1>   0.0800 
 32 H       -1.7740     1.2270     1.8720 H     1 <1>   0.0800 
 33 H       -5.3390    -1.6560    -0.7810 H     1 <1>   0.1500 
 34 H       -4.3810     3.0800     0.2490 H     1 <1>   0.1500 
 35 H       -7.1860    -0.0850    -0.3410 H     1 <1>   0.1500 
 36 H       -6.7360     3.3030     0.9760 H     1 <1>   0.0800 
 37 H       -7.8940     2.0410     0.6500 H     1 <1>   0.0800 
 38 H       -7.3220     3.0580    -0.6540 H     1 <1>   0.0800 
 39 H       -1.9890     5.8480     2.1510 H     1 <1>   0.1500 
 40 H        0.4300     3.3170    -0.2850 H     1 <1>   0.1500 
 41 H       -0.6390     7.7490     1.5070 H     1 <1>   0.1500 
 42 H        1.7800     5.2120    -0.9070 H     1 <1>   0.1500 
 43 H        2.0770     7.4990    -0.9740 H     1 <1>   0.3700 
 44 H        4.3420     9.5440     0.9460 H     1 <1>   0.0800 
 45 H        3.3470    10.8840     1.4400 H     1 <1>   0.0800 
 46 H        4.4490    11.0710     0.1010 H     1 <1>   0.0800 
 47 H        4.0130     9.9930    -2.0720 H     1 <1>   0.0800 
 48 H        2.6230     8.9820    -2.3360 H     1 <1>   0.0800 
 49 H        3.9390     8.4280    -1.3160 H     1 <1>   0.0800 
 50 H        2.5350    11.8510    -1.3570 H     1 <1>   0.0800 
 51 H        1.4320    11.6570    -0.0190 H     1 <1>   0.0800 
 52 H        1.1050    10.8620    -1.5340 H     1 <1>   0.0800 
@<TRIPOS>BOND
  1   1   2  2   
  2   2   3  am  
  3   2   4  1   
  4   3   5  1   
  5   3  29  1   
  6   4   6  1   
  7   4   7  1   
  8   4   8  1   
  9   5   7  ar  
 10   5   9  ar  
 11   6  30  1   
 12   7  10  ar  
 13   8  11  1   
 14   8  31  1   
 15   8  32  1   
 16   9  12  ar  
 17   9  33  1   
 18  10  13  ar  
 19  10  34  1   
 20  11  14  2   
 21  11  15  1   
 22  12  13  ar  
 23  12  35  1   
 24  13  16  1   
 25  15  17  ar  
 26  15  18  ar  
 27  16  36  1   
 28  16  37  1   
 29  16  38  1   
 30  17  19  ar  
 31  17  39  1   
 32  18  20  ar  
 33  18  40  1   
 34  19  21  ar  
 35  19  41  1   
 36  20  21  ar  
 37  20  42  1   
 38  21  22  1   
 39  22  23  am  
 40  22  43  1   
 41  23  24  2   
 42  23  25  1   
 43  25  26  1   
 44  25  27  1   
 45  25  28  1   
 46  26  44  1   
 47  26  45  1   
 48  26  46  1   
 49  27  47  1   
 50  27  48  1   
 51  27  49  1   
 52  28  50  1   
 53  28  51  1   
 54  28  52  1   
@<TRIPOS>SUBSTRUCTURE
  1 ****  15 GROUP 4 **** **** 0

# MOE 2024.06 (io_trps.svl 2023.06)
