@<TRIPOS>MOLECULE
2-[1-(4-Methyl-benzyl)-piperazin-2-yl]-ethanol
40 41 1 0 0 
SMALL
USER_CHARGES


@<TRIPOS>ATOM
  1 O       -0.3220    -0.0830    -0.0750 O.3   1 <1>  -0.6800 
  2 C       -1.3960     0.7160     0.2480 C.3   1 <1>   0.1200 
  3 C       -2.6620    -0.1180     0.0220 C.3   1 <1>  -0.1600 
  4 C       -3.9710     0.6300     0.3490 C.3   1 <1>   0.1900 
  5 N       -5.1620    -0.2210     0.0740 N.3   1 <1>  -0.8100 
  6 C       -4.0430     1.9340    -0.4930 C.3   1 <1>   0.3430 
  7 C       -6.4370     0.5180     0.2680 C.3   1 <1>   0.1100 
  8 C       -5.1780    -1.5040     0.8320 C.3   1 <1>   0.2540 
  9 N       -5.3320     2.6810    -0.3190 N.4   1 <1>  -0.9060 
 10 C       -6.5020     1.7900    -0.5910 C.3   1 <1>   0.3430 
 11 C       -6.4160    -2.3320     0.5170 C.ar  1 <1>  -0.1440 
 12 C       -6.6290    -2.8000    -0.7700 C.ar  1 <1>  -0.1500 
 13 C       -7.3460    -2.6210     1.5050 C.ar  1 <1>  -0.1500 
 14 C       -7.7580    -3.5420    -1.0690 C.ar  1 <1>  -0.1500 
 15 C       -8.4760    -3.3630     1.2050 C.ar  1 <1>  -0.1500 
 16 C       -8.6880    -3.8270    -0.0830 C.ar  1 <1>  -0.1440 
 17 C       -9.9270    -4.6410    -0.4100 C.3   1 <1>  -0.0970 
 18 H        0.5310     0.3640     0.1000 H     1 <1>   0.4000 
 19 H       -1.3570     1.5840    -0.3880 H     1 <1>   0.0800 
 20 H       -1.3000     1.0060     1.2810 H     1 <1>   0.0800 
 21 H       -2.5660    -0.9800     0.6560 H     1 <1>   0.0800 
 22 H       -2.6880    -0.4460    -1.0040 H     1 <1>   0.0800 
 23 H       -3.9590     0.8920     1.3940 H     1 <1>   0.0800 
 24 H       -3.9240     1.6620    -1.5300 H     1 <1>   0.0800 
 25 H       -3.2190     2.5740    -0.2270 H     1 <1>   0.0800 
 26 H       -6.5660     0.7660     1.3080 H     1 <1>   0.0800 
 27 H       -7.2700    -0.0980    -0.0260 H     1 <1>   0.0800 
 28 H       -5.1270    -1.3070     1.8890 H     1 <1>   0.0800 
 29 H       -4.3300    -2.1060     0.5610 H     1 <1>   0.0800 
 30 H       -5.3590     3.4920    -0.9490 H     1 <1>   0.4500 
 31 H       -5.3970     3.0270     0.6440 H     1 <1>   0.4500 
 32 H       -7.4230     2.3120    -0.3880 H     1 <1>   0.0800 
 33 H       -6.5060     1.4970    -1.6290 H     1 <1>   0.0800 
 34 H       -5.9130    -2.5830    -1.5430 H     1 <1>   0.1500 
 35 H       -7.2000    -2.2750     2.5120 H     1 <1>   0.1500 
 36 H       -7.9080    -3.8970    -2.0730 H     1 <1>   0.1500 
 37 H       -9.1900    -3.5810     1.9800 H     1 <1>   0.1500 
 38 H       -9.7260    -5.3240    -1.2150 H     1 <1>   0.0800 
 39 H      -10.7260    -3.9850    -0.7020 H     1 <1>   0.0800 
 40 H      -10.2390    -5.2110     0.4470 H     1 <1>   0.0800 
@<TRIPOS>BOND
  1   1   2  1   
  2   1  18  1   
  3   2   3  1   
  4   2  19  1   
  5   2  20  1   
  6   3   4  1   
  7   3  21  1   
  8   3  22  1   
  9   4   5  1   
 10   4   6  1   
 11   4  23  1   
 12   5   7  1   
 13   5   8  1   
 14   6   9  1   
 15   6  24  1   
 16   6  25  1   
 17   7  10  1   
 18   7  26  1   
 19   7  27  1   
 20   8  11  1   
 21   8  28  1   
 22   8  29  1   
 23   9  10  1   
 24   9  30  1   
 25   9  31  1   
 26  10  32  1   
 27  10  33  1   
 28  11  12  ar  
 29  11  13  ar  
 30  12  14  ar  
 31  12  34  1   
 32  13  15  ar  
 33  13  35  1   
 34  14  16  ar  
 35  14  36  1   
 36  15  16  ar  
 37  15  37  1   
 38  16  17  1   
 39  17  38  1   
 40  17  39  1   
 41  17  40  1   
@<TRIPOS>SUBSTRUCTURE
  1 ****   5 GROUP 4 **** **** 0

# MOE 2024.06 (io_trps.svl 2023.06)
