@<TRIPOS>MOLECULE
8-(4-Ethyl-piperazin-1-yl)-3,7-dimethyl-1-(4-methyl-benzyl)-3,7-dihydro-purine-2
59 62 1 0 0 
SMALL
USER_CHARGES


@<TRIPOS>ATOM
  1 O        0.7800     1.1120     3.5070 O.2   1 <1>  -0.5740 
  2 C        1.5410     1.4730     2.6330 C.2   1 <1>   0.6870 
  3 N        1.2300     2.5700     1.8460 N.am  1 <1>  -0.4250 
  4 N        2.7330     0.7900     2.4310 N.am  1 <1>  -0.4410 
  5 C        2.1360     3.0870     0.9370 C.2   1 <1>   0.7000 
  6 C       -0.1840     3.0190     1.7680 C.3   1 <1>   0.2780 
  7 C        3.6030     1.2750     1.4740 C.2   1 <1>   0.4210 
  8 C        3.0440    -0.4320     3.2340 C.3   1 <1>   0.0530 
  9 O        1.9070     4.1290     0.3450 O.2   1 <1>  -0.5740 
 10 C        3.3620     2.3730     0.7300 C.2   1 <1>   0.2710 
 11 C       -0.8520     2.2600     0.6340 C.ar  1 <1>  -0.1500 
 12 N        4.8180     0.7720     1.1220 N.pl3 1 <1>  -0.7030 
 13 N        4.4780     2.5350    -0.1210 N.pl3 1 <1>  -0.7670 
 14 C       -1.3710     0.9930     0.8530 C.ar  1 <1>  -0.1560 
 15 C       -0.9340     2.8160    -0.6340 C.ar  1 <1>  -0.1560 
 16 C        5.3440     1.5510     0.1730 C.cat 1 <1>   1.0690 
 17 C        4.4230     3.5330    -1.2340 C.3   1 <1>   0.2680 
 18 C       -1.9560     0.2890    -0.1850 C.ar  1 <1>  -0.1560 
 19 C       -1.5190     2.1100    -1.6700 C.ar  1 <1>  -0.1560 
 20 N        6.5810     1.3400    -0.3590 N.pl3 1 <1>  -0.5960 
 21 C       -2.0310     0.8420    -1.4520 C.ar  1 <1>  -0.1500 
 22 C        7.4030     2.4220    -1.0070 C.3   1 <1>   0.1610 
 23 C        7.2340    -0.0170    -0.3980 C.3   1 <1>   0.1610 
 24 C       -2.6760     0.0710    -2.5890 C.3   1 <1>  -0.1030 
 25 C        8.8820     2.4100    -0.5520 C.3   1 <1>   0.3380 
 26 C        8.7120     0.0080     0.0550 C.3   1 <1>   0.3380 
 27 N        9.5110     1.0530    -0.6710 N.4   1 <1>  -0.9610 
 28 C       10.9220     1.0990    -0.1950 C.3   1 <1>   0.3380 
 29 C       11.6650    -0.1390    -0.6790 C.3   1 <1>  -0.2460 
 30 H       -0.2310     4.0790     1.5860 H     1 <1>   0.0730 
 31 H       -0.6990     2.8280     2.6940 H     1 <1>   0.0730 
 32 H        2.1340    -0.9140     3.5500 H     1 <1>   0.0730 
 33 H        3.6060    -0.1570     4.1100 H     1 <1>   0.0730 
 34 H        3.6050    -1.1380     2.6500 H     1 <1>   0.0730 
 35 H        5.2460    -0.0370     1.5570 H     1 <1>   0.4450 
 36 H       -1.3230     0.5470     1.8320 H     1 <1>   0.1440 
 37 H       -0.5430     3.8010    -0.8240 H     1 <1>   0.1440 
 38 H        3.4270     3.5780    -1.6420 H     1 <1>   0.0730 
 39 H        5.0880     3.2610    -2.0340 H     1 <1>   0.0730 
 40 H        4.6830     4.5120    -0.8650 H     1 <1>   0.0730 
 41 H       -2.3580    -0.6920     0.0000 H     1 <1>   0.1440 
 42 H       -1.5790     2.5540    -2.6480 H     1 <1>   0.1440 
 43 H        7.0030     3.3900    -0.7650 H     1 <1>   0.0730 
 44 H        7.3640     2.3050    -2.0770 H     1 <1>   0.0730 
 45 H        7.1940    -0.3890    -1.4090 H     1 <1>   0.0730 
 46 H        6.6990    -0.7220     0.2140 H     1 <1>   0.0730 
 47 H       -2.2130     0.3240    -3.5250 H     1 <1>   0.0730 
 48 H       -3.7220     0.3120    -2.6420 H     1 <1>   0.0730 
 49 H       -2.5710    -0.9880    -2.4330 H     1 <1>   0.0730 
 50 H        8.9310     2.7370     0.4740 H     1 <1>   0.0730 
 51 H        9.4380     3.1190    -1.1440 H     1 <1>   0.0730 
 52 H        9.1470    -0.9630    -0.1160 H     1 <1>   0.0730 
 53 H        8.7520     0.2000     1.1150 H     1 <1>   0.0730 
 54 H        9.5590     0.7980    -1.6700 H     1 <1>   0.4450 
 55 H       10.9560     1.1570     0.8820 H     1 <1>   0.0730 
 56 H       11.4130     1.9730    -0.5950 H     1 <1>   0.0730 
 57 H       11.2820    -1.0370    -0.2280 H     1 <1>   0.0730 
 58 H       12.7000    -0.0560    -0.3980 H     1 <1>   0.0730 
 59 H       11.6230    -0.2210    -1.7500 H     1 <1>   0.0730 
@<TRIPOS>BOND
  1   1   2  2   
  2   2   3  am  
  3   2   4  am  
  4   3   5  am  
  5   3   6  1   
  6   4   7  1   
  7   4   8  1   
  8   5   9  2   
  9   5  10  1   
 10   6  11  1   
 11   6  30  1   
 12   6  31  1   
 13   7  10  2   
 14   7  12  1   
 15   8  32  1   
 16   8  33  1   
 17   8  34  1   
 18  10  13  1   
 19  11  14  ar  
 20  11  15  ar  
 21  12  16  ar  
 22  12  35  1   
 23  13  16  ar  
 24  13  17  1   
 25  14  18  ar  
 26  14  36  1   
 27  15  19  ar  
 28  15  37  1   
 29  16  20  ar  
 30  17  38  1   
 31  17  39  1   
 32  17  40  1   
 33  18  21  ar  
 34  18  41  1   
 35  19  21  ar  
 36  19  42  1   
 37  20  22  1   
 38  20  23  1   
 39  21  24  1   
 40  22  25  1   
 41  22  43  1   
 42  22  44  1   
 43  23  26  1   
 44  23  45  1   
 45  23  46  1   
 46  24  47  1   
 47  24  48  1   
 48  24  49  1   
 49  25  27  1   
 50  25  50  1   
 51  25  51  1   
 52  26  27  1   
 53  26  52  1   
 54  26  53  1   
 55  27  28  1   
 56  27  54  1   
 57  28  29  1   
 58  28  55  1   
 59  28  56  1   
 60  29  57  1   
 61  29  58  1   
 62  29  59  1   
@<TRIPOS>SUBSTRUCTURE
  1 ****  10 GROUP 4 **** **** 0

# MOE 2024.06 (io_trps.svl 2023.06)
