@<TRIPOS>MOLECULE
2-Ethylsulfanyl-5-(3,4,5-trimethoxy-phenyl)-5,8-dihydro-3H,6H-pyrido[2,3-d]pyrim
48 50 1 0 0 
SMALL
USER_CHARGES


@<TRIPOS>ATOM
  1 S        0.0050     0.2690    -0.1470 S.3   1 <1>  -0.3710 
  2 C        1.5400     1.1510    -0.1850 C.2   1 <1>   0.6410 
  3 C       -1.0360     1.1230    -1.4110 C.3   1 <1>   0.0700 
  4 N        2.4740     0.6650     0.6630 N.pl3 1 <1>  -0.5500 
  5 N        1.6870     2.1500    -0.9670 N.2   1 <1>  -0.6610 
  6 C       -2.3920     0.4240    -1.4500 C.3   1 <1>  -0.2400 
  7 C        3.6820     1.2730     0.7570 C.2   1 <1>   0.2090 
  8 C        2.9060     2.7680    -0.9340 C.2   1 <1>   0.7670 
  9 N        4.6310     0.7330     1.5840 N.am  1 <1>  -0.5390 
 10 C        3.9090     2.3750    -0.0070 C.2   1 <1>  -0.1240 
 11 O        3.0930     3.6470    -1.7630 O.2   1 <1>  -0.5700 
 12 C        5.8430     1.2980     1.8030 C.2   1 <1>   0.5690 
 13 C        5.2480     3.1190     0.0990 C.3   1 <1>   0.2020 
 14 O        6.7100     0.6940     2.3730 O.2   1 <1>  -0.5700 
 15 C        6.0650     2.7240     1.3490 C.3   1 <1>  -0.0990 
 16 C        5.1000     4.6410     0.1250 C.ar  1 <1>  -0.1430 
 17 C        4.1060     5.2560     0.8740 C.ar  1 <1>  -0.1500 
 18 C        5.9810     5.4310    -0.5980 C.ar  1 <1>  -0.1500 
 19 C        3.9710     6.6410     0.8820 C.ar  1 <1>   0.0830 
 20 C        5.8870     6.8120    -0.5830 C.ar  1 <1>   0.0830 
 21 O        2.9820     7.2620     1.5870 O.3   1 <1>  -0.3630 
 22 C        4.8600     7.4260     0.1450 C.ar  1 <1>   0.0830 
 23 O        6.8300     7.4760    -1.3080 O.3   1 <1>  -0.3630 
 24 C        1.7970     6.5770     1.9250 C.3   1 <1>   0.0400 
 25 O        4.7010     8.7780     0.1300 O.3   1 <1>  -0.3630 
 26 C        7.4060     8.6540    -0.7880 C.3   1 <1>   0.0400 
 27 C        3.7430     9.2490    -0.7890 C.3   1 <1>   0.0400 
 28 H       -0.5210     1.0530    -2.3550 H     1 <1>   0.0800 
 29 H       -1.1250     2.1540    -1.1150 H     1 <1>   0.0800 
 30 H        2.2150    -0.1500     1.2180 H     1 <1>   0.4000 
 31 H       -2.2680    -0.6100    -1.7190 H     1 <1>   0.0800 
 32 H       -3.0260     0.8960    -2.1790 H     1 <1>   0.0800 
 33 H       -2.8680     0.4830    -0.4880 H     1 <1>   0.0800 
 34 H        4.5180    -0.1960     1.9890 H     1 <1>   0.3700 
 35 H        5.8170     2.8430    -0.7720 H     1 <1>   0.0800 
 36 H        7.1110     2.8790     1.1600 H     1 <1>   0.0800 
 37 H        5.7910     3.3540     2.1750 H     1 <1>   0.0800 
 38 H        3.4380     4.6490     1.4520 H     1 <1>   0.1500 
 39 H        6.7630     4.9850    -1.1870 H     1 <1>   0.1500 
 40 H        1.0860     7.2990     2.2830 H     1 <1>   0.0800 
 41 H        2.0130     5.8640     2.7000 H     1 <1>   0.0800 
 42 H        1.4120     6.0890     1.0450 H     1 <1>   0.0800 
 43 H        8.3670     8.7900    -1.2490 H     1 <1>   0.0800 
 44 H        7.5170     8.5530     0.2780 H     1 <1>   0.0800 
 45 H        6.7690     9.4870    -1.0240 H     1 <1>   0.0800 
 46 H        3.7180    10.3210    -0.7300 H     1 <1>   0.0800 
 47 H        2.7820     8.8420    -0.5320 H     1 <1>   0.0800 
 48 H        4.0300     8.9370    -1.7780 H     1 <1>   0.0800 
@<TRIPOS>BOND
  1   1   2  1   
  2   1   3  1   
  3   2   4  1   
  4   2   5  2   
  5   3   6  1   
  6   3  28  1   
  7   3  29  1   
  8   4   7  1   
  9   4  30  1   
 10   5   8  1   
 11   6  31  1   
 12   6  32  1   
 13   6  33  1   
 14   7   9  1   
 15   7  10  2   
 16   8  10  1   
 17   8  11  2   
 18   9  12  am  
 19   9  34  1   
 20  10  13  1   
 21  12  14  2   
 22  12  15  1   
 23  13  15  1   
 24  13  16  1   
 25  13  35  1   
 26  15  36  1   
 27  15  37  1   
 28  16  17  ar  
 29  16  18  ar  
 30  17  19  ar  
 31  17  38  1   
 32  18  20  ar  
 33  18  39  1   
 34  19  21  1   
 35  19  22  ar  
 36  20  22  ar  
 37  20  23  1   
 38  21  24  1   
 39  22  25  1   
 40  23  26  1   
 41  24  40  1   
 42  24  41  1   
 43  24  42  1   
 44  25  27  1   
 45  26  43  1   
 46  26  44  1   
 47  26  45  1   
 48  27  46  1   
 49  27  47  1   
 50  27  48  1   
@<TRIPOS>SUBSTRUCTURE
  1 ****  16 GROUP 4 **** **** 0

# MOE 2024.06 (io_trps.svl 2023.06)
