@<TRIPOS>MOLECULE
5,7-Dichloro-2-methyl-1,2,3,4-tetrahydro-quinolin-8-ol
25 26 1 0 0 
SMALL
USER_CHARGES


@<TRIPOS>ATOM
  1 CL      -0.0040    -0.0700    -0.5800 Cl    1 <1>  -0.1770 
  2 C        1.4930     0.8030    -0.3280 C.ar  1 <1>   0.1770 
  3 C        2.7050     0.1330    -0.2590 C.ar  1 <1>   0.0830 
  4 C        1.4400     2.1770    -0.2100 C.ar  1 <1>  -0.1500 
  5 O        2.7890    -1.2030    -0.4440 O.3   1 <1>  -0.5330 
  6 C        3.8960     0.8310    -0.0360 C.ar  1 <1>   0.1000 
  7 C        2.6220     2.8700    -0.0330 C.ar  1 <1>   0.1770 
  8 N        5.0950     0.1110     0.1190 N.pl3 1 <1>  -0.8690 
  9 C        3.8520     2.2250     0.0430 C.ar  1 <1>  -0.1430 
 10 CL       2.5230     4.6120     0.1050 Cl    1 <1>  -0.1770 
 11 C        6.3560     0.8260     0.3960 C.3   1 <1>   0.2890 
 12 C        5.1420     3.0190     0.2150 C.3   1 <1>  -0.0170 
 13 C        6.3430     2.2030    -0.2690 C.3   1 <1>  -0.1600 
 14 C        7.4980    -0.0340    -0.1310 C.3   1 <1>  -0.2400 
 15 H        0.5010     2.6950    -0.2610 H     1 <1>   0.1500 
 16 H        3.7260    -1.4260    -0.6130 H     1 <1>   0.4500 
 17 H        4.9950    -0.6620     0.7870 H     1 <1>   0.4000 
 18 H        6.4620     0.9470     1.4620 H     1 <1>   0.0800 
 19 H        5.2630     3.2680     1.2540 H     1 <1>   0.0800 
 20 H        5.1000     3.9340    -0.3490 H     1 <1>   0.0800 
 21 H        6.2870     2.0800    -1.3360 H     1 <1>   0.0800 
 22 H        7.2520     2.7280    -0.0390 H     1 <1>   0.0800 
 23 H        7.3910    -0.1870    -1.1900 H     1 <1>   0.0800 
 24 H        7.5050    -0.9870     0.3660 H     1 <1>   0.0800 
 25 H        8.4390     0.4510     0.0540 H     1 <1>   0.0800 
@<TRIPOS>BOND
  1   1   2  1   
  2   2   3  ar  
  3   2   4  ar  
  4   3   5  1   
  5   3   6  ar  
  6   4   7  ar  
  7   4  15  1   
  8   5  16  1   
  9   6   8  1   
 10   6   9  ar  
 11   7   9  ar  
 12   7  10  1   
 13   8  11  1   
 14   8  17  1   
 15   9  12  1   
 16  11  13  1   
 17  11  14  1   
 18  11  18  1   
 19  12  13  1   
 20  12  19  1   
 21  12  20  1   
 22  13  21  1   
 23  13  22  1   
 24  14  23  1   
 25  14  24  1   
 26  14  25  1   
@<TRIPOS>SUBSTRUCTURE
  1 ****   6 GROUP 4 **** **** 0

# MOE 2024.06 (io_trps.svl 2023.06)
