@<TRIPOS>MOLECULE
Morpholine-4-carboxylic acid allyl-[3-(4-chloro-phenyl)-[1,2,4]oxadiazol-5-ylmet
44 46 1 0 0 
SMALL
USER_CHARGES


@<TRIPOS>ATOM
  1 CL      -1.4770     0.7410    -2.7130 Cl    1 <1>  -0.1770 
  2 C       -2.9200     0.7030    -1.7340 C.ar  1 <1>   0.1770 
  3 C       -2.9760     1.4530    -0.5760 C.ar  1 <1>  -0.1500 
  4 C       -3.9900    -0.0760    -2.1270 C.ar  1 <1>  -0.1500 
  5 C       -4.1240     1.4200     0.1970 C.ar  1 <1>  -0.1500 
  6 C       -5.1320    -0.1020    -1.3460 C.ar  1 <1>  -0.1500 
  7 C       -5.2300     0.6430    -0.1650 C.ar  1 <1>   0.0540 
  8 C       -6.4300     0.6180     0.6550 C.2   1 <1>   0.4620 
  9 N       -6.6020     1.2630     1.7550 N.2   1 <1>  -0.4100 
 10 N       -7.5090    -0.1020     0.3320 N.2   1 <1>  -0.5650 
 11 O       -7.7950     1.0030     2.1870 O.3   1 <1>  -0.0190 
 12 C       -8.2910     0.1910     1.2910 C.2   1 <1>   0.2980 
 13 C       -9.7080    -0.3340     1.4920 C.3   1 <1>   0.3200 
 14 N      -10.8080     0.6080     1.0910 N.am  1 <1>  -0.6600 
 15 C      -12.0390     0.0600     0.8460 C.2   1 <1>   0.6900 
 16 C      -10.7160     2.0040     1.6010 C.3   1 <1>   0.2780 
 17 O      -12.2490    -1.0980     1.1620 O.2   1 <1>  -0.5700 
 18 N      -13.0460     0.7940     0.2760 N.am  1 <1>  -0.6600 
 19 C       -9.9460     2.9270     0.6620 C.2   1 <1>  -0.2880 
 20 C      -14.4740     0.3820     0.4190 C.3   1 <1>   0.1400 
 21 C      -12.8070     1.6610    -0.9140 C.3   1 <1>   0.1400 
 22 C       -9.3680     2.6330    -0.5090 C.2   1 <1>  -0.3000 
 23 C      -15.0170    -0.1610    -0.9120 C.3   1 <1>   0.1200 
 24 C      -13.4630     1.0600    -2.1690 C.3   1 <1>   0.1200 
 25 O      -14.8120     0.7690    -1.9380 O.3   1 <1>  -0.5600 
 26 H       -2.1320     2.0540    -0.2870 H     1 <1>   0.1500 
 27 H       -3.9250    -0.6530    -3.0320 H     1 <1>   0.1500 
 28 H       -4.1640     2.0060     1.0990 H     1 <1>   0.1500 
 29 H       -5.9640    -0.7110    -1.6560 H     1 <1>   0.1500 
 30 H       -9.8380    -0.6010     2.5250 H     1 <1>   0.0800 
 31 H       -9.8000    -1.2360     0.9120 H     1 <1>   0.0800 
 32 H      -10.2380     1.9990     2.5660 H     1 <1>   0.0800 
 33 H      -11.7050     2.4050     1.7440 H     1 <1>   0.0800 
 34 H       -9.9000     3.9250     1.0630 H     1 <1>   0.1500 
 35 H      -15.0590     1.2340     0.7180 H     1 <1>   0.0800 
 36 H      -14.5750    -0.3700     1.1820 H     1 <1>   0.0800 
 37 H      -11.7550     1.7610    -1.0960 H     1 <1>   0.0800 
 38 H      -13.2110     2.6400    -0.7300 H     1 <1>   0.0800 
 39 H       -9.3720     1.6560    -0.9630 H     1 <1>   0.1500 
 40 H       -8.8350     3.3470    -1.1110 H     1 <1>   0.1500 
 41 H      -16.0740    -0.3410    -0.8360 H     1 <1>   0.0800 
 42 H      -14.5240    -1.0820    -1.1710 H     1 <1>   0.0800 
 43 H      -12.9600     0.1540    -2.4590 H     1 <1>   0.0800 
 44 H      -13.4120     1.7590    -2.9850 H     1 <1>   0.0800 
@<TRIPOS>BOND
  1   1   2  1   
  2   2   3  ar  
  3   2   4  ar  
  4   3   5  ar  
  5   3  26  1   
  6   4   6  ar  
  7   4  27  1   
  8   5   7  ar  
  9   5  28  1   
 10   6   7  ar  
 11   6  29  1   
 12   7   8  1   
 13   8   9  2   
 14   8  10  1   
 15   9  11  1   
 16  10  12  2   
 17  11  12  1   
 18  12  13  1   
 19  13  14  1   
 20  13  30  1   
 21  13  31  1   
 22  14  15  am  
 23  14  16  1   
 24  15  17  2   
 25  15  18  am  
 26  16  19  1   
 27  16  32  1   
 28  16  33  1   
 29  18  20  1   
 30  18  21  1   
 31  19  22  2   
 32  19  34  1   
 33  20  23  1   
 34  20  35  1   
 35  20  36  1   
 36  21  24  1   
 37  21  37  1   
 38  21  38  1   
 39  22  39  1   
 40  22  40  1   
 41  23  25  1   
 42  23  41  1   
 43  23  42  1   
 44  24  25  1   
 45  24  43  1   
 46  24  44  1   
@<TRIPOS>SUBSTRUCTURE
  1 ****  12 GROUP 4 **** **** 0

# MOE 2024.06 (io_trps.svl 2023.06)
