@<TRIPOS>MOLECULE
5-Bromo-furan-2-carboxylic acid cyclohexyl-(3-phenyl-[1,2,4]oxadiazol-5-ylmethyl
47 50 1 0 0 
SMALL
USER_CHARGES


@<TRIPOS>ATOM
  1 BR       4.1370     2.6240     3.8190 Br    1 <1>  -0.0580 
  2 C        3.9080     1.1740     2.5780 C.2   1 <1>   0.1980 
  3 O        4.8130     1.0180     1.6470 O.3   1 <1>  -0.2800 
  4 C        2.9220     0.2600     2.5160 C.2   1 <1>  -0.1500 
  5 C        4.4430    -0.0330     0.9100 C.2   1 <1>   0.0550 
  6 C        3.2770    -0.5340     1.4230 C.2   1 <1>  -0.1500 
  7 C        5.2310    -0.5120    -0.2080 C.2   1 <1>   0.7150 
  8 O        5.0640    -1.6580    -0.5900 O.2   1 <1>  -0.5700 
  9 N        6.1720     0.2490    -0.8740 N.am  1 <1>  -0.6600 
 10 C        6.0900     1.7370    -0.9590 C.3   1 <1>   0.2200 
 11 C        7.3480    -0.4490    -1.4940 C.3   1 <1>   0.3200 
 12 C        5.9750     2.2170    -2.4140 C.3   1 <1>  -0.1600 
 13 C        7.2680     2.4100    -0.2430 C.3   1 <1>  -0.1600 
 14 C        8.4700    -0.6800    -0.4900 C.2   1 <1>   0.2980 
 15 C        5.8270     3.7450    -2.4640 C.3   1 <1>  -0.1600 
 16 C        7.1240     3.9380    -0.2870 C.3   1 <1>  -0.1600 
 17 O        8.2200    -1.3850     0.5820 O.3   1 <1>  -0.0190 
 18 N        9.6590    -0.2430    -0.5900 N.2   1 <1>  -0.5650 
 19 C        6.9850     4.4400    -1.7320 C.3   1 <1>  -0.1600 
 20 N        9.3450    -1.3910     1.2250 N.2   1 <1>  -0.4100 
 21 C       10.1990    -0.7170     0.5390 C.2   1 <1>   0.4620 
 22 C       11.5830    -0.4740     0.9100 C.ar  1 <1>   0.0540 
 23 C       12.4440     0.2660     0.0960 C.ar  1 <1>  -0.1500 
 24 C       12.1110    -0.9720     2.1030 C.ar  1 <1>  -0.1500 
 25 C       13.7610     0.4960     0.4530 C.ar  1 <1>  -0.1500 
 26 C       13.4260    -0.7470     2.4660 C.ar  1 <1>  -0.1500 
 27 C       14.2550    -0.0110     1.6400 C.ar  1 <1>  -0.1500 
 28 H        2.0600     0.1480     3.1480 H     1 <1>   0.1500 
 29 H        2.7280    -1.3870     1.0620 H     1 <1>   0.1500 
 30 H        5.1870     2.0610    -0.4720 H     1 <1>   0.0800 
 31 H        7.7370     0.1260    -2.3110 H     1 <1>   0.0800 
 32 H        7.0480    -1.4020    -1.8920 H     1 <1>   0.0800 
 33 H        5.1180     1.7610    -2.8760 H     1 <1>   0.0800 
 34 H        6.8520     1.9490    -2.9730 H     1 <1>   0.0800 
 35 H        8.1940     2.1430    -0.7190 H     1 <1>   0.0800 
 36 H        7.3020     2.0850     0.7820 H     1 <1>   0.0800 
 37 H        4.8950     4.0300    -2.0050 H     1 <1>   0.0800 
 38 H        5.8010     4.0730    -3.4900 H     1 <1>   0.0800 
 39 H        7.9840     4.3940     0.1720 H     1 <1>   0.0800 
 40 H        6.2560     4.2310     0.2790 H     1 <1>   0.0800 
 41 H        6.8220     5.5040    -1.7280 H     1 <1>   0.0800 
 42 H        7.9040     4.2520    -2.2620 H     1 <1>   0.0800 
 43 H       12.0780     0.6690    -0.8320 H     1 <1>   0.1500 
 44 H       11.4790    -1.5470     2.7590 H     1 <1>   0.1500 
 45 H       14.4020     1.0700    -0.1950 H     1 <1>   0.1500 
 46 H       13.8050    -1.1440     3.3920 H     1 <1>   0.1500 
 47 H       15.2800     0.1660     1.9200 H     1 <1>   0.1500 
@<TRIPOS>BOND
  1   1   2  1   
  2   2   3  1   
  3   2   4  2   
  4   3   5  1   
  5   4   6  1   
  6   4  28  1   
  7   5   6  2   
  8   5   7  1   
  9   6  29  1   
 10   7   8  2   
 11   7   9  am  
 12   9  10  1   
 13   9  11  1   
 14  10  12  1   
 15  10  13  1   
 16  10  30  1   
 17  11  14  1   
 18  11  31  1   
 19  11  32  1   
 20  12  15  1   
 21  12  33  1   
 22  12  34  1   
 23  13  16  1   
 24  13  35  1   
 25  13  36  1   
 26  14  17  1   
 27  14  18  2   
 28  15  19  1   
 29  15  37  1   
 30  15  38  1   
 31  16  19  1   
 32  16  39  1   
 33  16  40  1   
 34  17  20  1   
 35  18  21  1   
 36  19  41  1   
 37  19  42  1   
 38  20  21  2   
 39  21  22  1   
 40  22  23  ar  
 41  22  24  ar  
 42  23  25  ar  
 43  23  43  1   
 44  24  26  ar  
 45  24  44  1   
 46  25  27  ar  
 47  25  45  1   
 48  26  27  ar  
 49  26  46  1   
 50  27  47  1   
@<TRIPOS>SUBSTRUCTURE
  1 ****  14 GROUP 4 **** **** 0

# MOE 2024.06 (io_trps.svl 2023.06)
