@<TRIPOS>MOLECULE
8-Dimethylamino-7-[3-(3,4-dimethyl-phenoxy)-2-hydroxy-propyl]-1,3-dimethyl-3,7-d
57 59 1 0 0 
SMALL
USER_CHARGES


@<TRIPOS>ATOM
  1 O        1.0190    -1.2180     0.2790 O.2   1 <1>  -0.5740 
  2 C        1.7830    -0.2930     0.4650 C.2   1 <1>   0.6870 
  3 N        1.3830     0.7990     1.2280 N.am  1 <1>  -0.4250 
  4 N        3.0540    -0.3250    -0.0920 N.am  1 <1>  -0.4410 
  5 C        2.2190     1.8930     1.4090 C.2   1 <1>   0.7000 
  6 C        0.0080     0.8080     1.8200 C.3   1 <1>   0.0530 
  7 C        3.8660     0.7800     0.0800 C.2   1 <1>   0.4210 
  8 C        3.5070    -1.5030    -0.8910 C.3   1 <1>   0.0530 
  9 O        1.8590     2.8470     2.0810 O.2   1 <1>  -0.5740 
 10 C        3.5110     1.8690     0.7880 C.2   1 <1>   0.2710 
 11 N        5.1120     0.9800    -0.4200 N.pl3 1 <1>  -0.7030 
 12 N        4.5940     2.7700     0.7090 N.pl3 1 <1>  -0.7670 
 13 C        5.5410     2.1910    -0.0520 C.cat 1 <1>   1.0690 
 14 C        4.4810     4.1460     1.2870 C.3   1 <1>   0.3490 
 15 N        6.7650     2.6530    -0.4300 N.pl3 1 <1>  -0.5960 
 16 C        3.5650     5.0400     0.4260 C.3   1 <1>   0.1940 
 17 C        7.2130     4.0750    -0.3590 C.3   1 <1>   0.0810 
 18 C        7.8170     1.7750    -1.0310 C.3   1 <1>   0.0810 
 19 O        3.9900     5.0330    -0.9000 O.3   1 <1>  -0.6830 
 20 C        3.5050     6.4910     0.9320 C.3   1 <1>   0.1130 
 21 O        2.7910     7.2970     0.0140 O.3   1 <1>  -0.3680 
 22 C        1.4610     7.1250    -0.2080 C.ar  1 <1>   0.0760 
 23 C        0.6130     6.4290     0.6480 C.ar  1 <1>  -0.1560 
 24 C        0.9480     7.6740    -1.3690 C.ar  1 <1>  -0.1560 
 25 C       -0.7270     6.2610     0.3350 C.ar  1 <1>  -0.1500 
 26 C       -0.3880     7.5160    -1.6830 C.ar  1 <1>  -0.1560 
 27 C       -1.2320     6.8080    -0.8400 C.ar  1 <1>  -0.1500 
 28 C       -1.6180     5.4830     1.2930 C.3   1 <1>  -0.1030 
 29 C       -2.6970     6.6550    -1.2240 C.3   1 <1>  -0.1030 
 30 H       -0.2820    -0.1880     2.1090 H     1 <1>   0.0730 
 31 H       -0.6940     1.1770     1.0930 H     1 <1>   0.0730 
 32 H       -0.0310     1.4330     2.6950 H     1 <1>   0.0730 
 33 H        2.9520    -2.3840    -0.6140 H     1 <1>   0.0730 
 34 H        4.5490    -1.6990    -0.7150 H     1 <1>   0.0730 
 35 H        3.3460    -1.3140    -1.9380 H     1 <1>   0.0730 
 36 H        5.6240     0.3630    -1.0380 H     1 <1>   0.4450 
 37 H        5.4460     4.6030     1.3900 H     1 <1>   0.0730 
 38 H        4.0680     4.0790     2.2790 H     1 <1>   0.0730 
 39 H        2.5710     4.6330     0.4390 H     1 <1>   0.0730 
 40 H        7.5870     4.2960     0.6250 H     1 <1>   0.0730 
 41 H        6.4080     4.7430    -0.6000 H     1 <1>   0.0730 
 42 H        8.0000     4.2570    -1.0720 H     1 <1>   0.0730 
 43 H        7.6350     0.7360    -0.8200 H     1 <1>   0.0730 
 44 H        8.7810     2.0270    -0.6210 H     1 <1>   0.0730 
 45 H        7.8490     1.9200    -2.0980 H     1 <1>   0.0730 
 46 H        3.4710     5.7160    -1.3840 H     1 <1>   0.3950 
 47 H        4.4970     6.8990     1.0070 H     1 <1>   0.0730 
 48 H        3.0370     6.5620     1.8970 H     1 <1>   0.0730 
 49 H        0.9780     6.0140     1.5670 H     1 <1>   0.1440 
 50 H        1.5960     8.2250    -2.0260 H     1 <1>   0.1440 
 51 H       -0.7680     7.9490    -2.5910 H     1 <1>   0.1440 
 52 H       -1.0530     5.0990     2.1240 H     1 <1>   0.0730 
 53 H       -2.0730     4.6540     0.7830 H     1 <1>   0.0730 
 54 H       -2.3900     6.1250     1.6770 H     1 <1>   0.0730 
 55 H       -3.3240     7.0770    -0.4600 H     1 <1>   0.0730 
 56 H       -2.9390     5.6140    -1.3430 H     1 <1>   0.0730 
 57 H       -2.9090     7.1580    -2.1490 H     1 <1>   0.0730 
@<TRIPOS>BOND
  1   1   2  2   
  2   2   3  am  
  3   2   4  am  
  4   3   5  am  
  5   3   6  1   
  6   4   7  1   
  7   4   8  1   
  8   5   9  2   
  9   5  10  1   
 10   6  30  1   
 11   6  31  1   
 12   6  32  1   
 13   7  10  2   
 14   7  11  1   
 15   8  33  1   
 16   8  34  1   
 17   8  35  1   
 18  10  12  1   
 19  11  13  ar  
 20  11  36  1   
 21  12  13  ar  
 22  12  14  1   
 23  13  15  ar  
 24  14  16  1   
 25  14  37  1   
 26  14  38  1   
 27  15  17  1   
 28  15  18  1   
 29  16  19  1   
 30  16  20  1   
 31  16  39  1   
 32  17  40  1   
 33  17  41  1   
 34  17  42  1   
 35  18  43  1   
 36  18  44  1   
 37  18  45  1   
 38  19  46  1   
 39  20  21  1   
 40  20  47  1   
 41  20  48  1   
 42  21  22  1   
 43  22  23  ar  
 44  22  24  ar  
 45  23  25  ar  
 46  23  49  1   
 47  24  26  ar  
 48  24  50  1   
 49  25  27  ar  
 50  25  28  1   
 51  26  27  ar  
 52  26  51  1   
 53  27  29  1   
 54  28  52  1   
 55  28  53  1   
 56  28  54  1   
 57  29  55  1   
 58  29  56  1   
 59  29  57  1   
@<TRIPOS>SUBSTRUCTURE
  1 ****  16 GROUP 4 **** **** 0

# MOE 2024.06 (io_trps.svl 2023.06)
