@<TRIPOS>MOLECULE
4-(2,5-Dimethoxy-phenyl)-1-(4-ethyl-phenyl)-4,7-dihydro-1H,3H-furo[3,4-b]pyridin
52 55 1 0 0 
SMALL
USER_CHARGES


@<TRIPOS>ATOM
  1 O       -2.7160    -0.1890     2.8690 O.2   1 <1>  -0.5700 
  2 C       -2.8470     0.3420     1.7950 C.2   1 <1>   0.5690 
  3 N       -2.8670    -0.3580     0.5950 N.am  1 <1>  -0.2860 
  4 C       -2.9860     1.8590     1.7520 C.3   1 <1>  -0.0990 
  5 C       -2.4190    -1.6880     0.5050 C.ar  1 <1>   0.1170 
  6 C       -3.4170     0.2620    -0.5180 C.2   1 <1>  -0.0290 
  7 C       -4.0060     2.3590     0.7060 C.3   1 <1>   0.2020 
  8 C       -1.1660    -1.9710    -0.0230 C.ar  1 <1>  -0.1500 
  9 C       -3.2300    -2.7390     0.9110 C.ar  1 <1>  -0.1500 
 10 C       -3.9580     1.4800    -0.5320 C.2   1 <1>  -0.1240 
 11 C       -3.5330    -0.3290    -1.9090 C.3   1 <1>   0.2580 
 12 C       -3.7640     3.8420     0.4170 C.ar  1 <1>  -0.1440 
 13 C       -0.7400    -3.2800    -0.1570 C.ar  1 <1>  -0.1500 
 14 C       -2.8040    -4.0480     0.7770 C.ar  1 <1>  -0.1500 
 15 C       -4.4520     1.7490    -1.8300 C.2   1 <1>   0.7060 
 16 O       -4.1910     0.7100    -2.6280 O.3   1 <1>  -0.4300 
 17 C       -2.6890     4.2910    -0.3500 C.ar  1 <1>   0.0830 
 18 C       -4.6470     4.7760     0.9410 C.ar  1 <1>  -0.1500 
 19 C       -1.5570    -4.3270     0.2400 C.ar  1 <1>  -0.1430 
 20 O       -5.0470     2.7160    -2.2480 O.2   1 <1>  -0.5700 
 21 O       -1.8190     3.3870    -0.8700 O.3   1 <1>  -0.3630 
 22 C       -2.5110     5.6520    -0.5720 C.ar  1 <1>  -0.1500 
 23 C       -4.4770     6.1320     0.7160 C.ar  1 <1>   0.0830 
 24 C       -1.0900    -5.7650     0.0920 C.3   1 <1>  -0.0170 
 25 C       -1.4270     3.5390    -2.2180 C.3   1 <1>   0.0400 
 26 C       -3.3990     6.5710    -0.0460 C.ar  1 <1>  -0.1500 
 27 O       -5.3990     6.9620     1.2700 O.3   1 <1>  -0.3620 
 28 C       -1.4920    -6.3230    -1.2750 C.3   1 <1>  -0.2400 
 29 C       -5.3880     8.3460     0.9970 C.3   1 <1>   0.0400 
 30 H       -2.0140     2.2540     1.5240 H     1 <1>   0.0800 
 31 H       -3.2630     2.2230     2.7240 H     1 <1>   0.0800 
 32 H       -4.9920     2.2440     1.1210 H     1 <1>   0.0800 
 33 H       -0.5250    -1.1640    -0.3270 H     1 <1>   0.1500 
 34 H       -4.1950    -2.5270     1.3360 H     1 <1>   0.1500 
 35 H       -4.1460    -1.2130    -1.9260 H     1 <1>   0.0800 
 36 H       -2.5720    -0.5130    -2.3550 H     1 <1>   0.0800 
 37 H        0.2330    -3.4840    -0.5700 H     1 <1>   0.1500 
 38 H       -3.4470    -4.8500     1.0950 H     1 <1>   0.1500 
 39 H       -5.4890     4.4690     1.5330 H     1 <1>   0.1500 
 40 H       -1.6760     6.0030    -1.1490 H     1 <1>   0.1500 
 41 H       -1.5230    -6.3700     0.8700 H     1 <1>   0.0800 
 42 H       -0.0200    -5.8130     0.2020 H     1 <1>   0.0800 
 43 H       -0.9770     2.6190    -2.5420 H     1 <1>   0.0800 
 44 H       -0.7120     4.3380    -2.2900 H     1 <1>   0.0800 
 45 H       -2.2990     3.7510    -2.8140 H     1 <1>   0.0800 
 46 H       -3.2360     7.6140    -0.2350 H     1 <1>   0.1500 
 47 H       -2.5610    -6.2970    -1.3860 H     1 <1>   0.0800 
 48 H       -1.1580    -7.3400    -1.3720 H     1 <1>   0.0800 
 49 H       -1.0480    -5.7360    -2.0600 H     1 <1>   0.0800 
 50 H       -6.2290     8.7910     1.4970 H     1 <1>   0.0800 
 51 H       -5.4740     8.4920    -0.0650 H     1 <1>   0.0800 
 52 H       -4.4740     8.7690     1.3740 H     1 <1>   0.0800 
@<TRIPOS>BOND
  1   1   2  2   
  2   2   3  am  
  3   2   4  1   
  4   3   5  1   
  5   3   6  1   
  6   4   7  1   
  7   4  30  1   
  8   4  31  1   
  9   5   8  ar  
 10   5   9  ar  
 11   6  10  2   
 12   6  11  1   
 13   7  10  1   
 14   7  12  1   
 15   7  32  1   
 16   8  13  ar  
 17   8  33  1   
 18   9  14  ar  
 19   9  34  1   
 20  10  15  1   
 21  11  16  1   
 22  11  35  1   
 23  11  36  1   
 24  12  17  ar  
 25  12  18  ar  
 26  13  19  ar  
 27  13  37  1   
 28  14  19  ar  
 29  14  38  1   
 30  15  16  1   
 31  15  20  2   
 32  17  21  1   
 33  17  22  ar  
 34  18  23  ar  
 35  18  39  1   
 36  19  24  1   
 37  21  25  1   
 38  22  26  ar  
 39  22  40  1   
 40  23  26  ar  
 41  23  27  1   
 42  24  28  1   
 43  24  41  1   
 44  24  42  1   
 45  25  43  1   
 46  25  44  1   
 47  25  45  1   
 48  26  46  1   
 49  27  29  1   
 50  28  47  1   
 51  28  48  1   
 52  28  49  1   
 53  29  50  1   
 54  29  51  1   
 55  29  52  1   
@<TRIPOS>SUBSTRUCTURE
  1 ****  10 GROUP 4 **** **** 0

# MOE 2024.06 (io_trps.svl 2023.06)
