@<TRIPOS>MOLECULE
N-(Tetrahydro-furan-2-ylmethyl)-2-(2,4,5-trimethyl-phenoxy)-acetamide
43 44 1 0 0 
SMALL
USER_CHARGES


@<TRIPOS>ATOM
  1 O       -2.0680     3.6340    -2.5040 O.2   1 <1>  -0.5700 
  2 C       -2.0760     2.6210    -1.8470 C.2   1 <1>   0.5690 
  3 N       -0.9490     2.1400    -1.2590 N.am  1 <1>  -0.7300 
  4 C       -3.3900     1.8710    -1.6670 C.3   1 <1>   0.1810 
  5 C        0.3890     2.7870    -1.3020 C.3   1 <1>   0.1400 
  6 O       -3.2860     0.8910    -0.6410 O.3   1 <1>  -0.3620 
  7 C        0.4990     3.9130    -0.2650 C.3   1 <1>   0.2000 
  8 C       -4.3460     0.1200    -0.2820 C.ar  1 <1>   0.0830 
  9 O        1.8180     4.3430    -0.1890 O.3   1 <1>  -0.5600 
 10 C        0.1640     3.5110     1.1670 C.3   1 <1>  -0.1600 
 11 C       -4.1650    -0.7720     0.7690 C.ar  1 <1>  -0.1430 
 12 C       -5.5840     0.1900    -0.9160 C.ar  1 <1>  -0.1500 
 13 C        2.0260     5.0240     1.0060 C.3   1 <1>   0.1200 
 14 C        1.0080     4.4640     1.9980 C.3   1 <1>  -0.1600 
 15 C       -5.2190    -1.5760     1.1680 C.ar  1 <1>  -0.1500 
 16 C       -2.8250    -0.8720     1.4850 C.3   1 <1>  -0.0970 
 17 C       -6.6360    -0.6170    -0.5140 C.ar  1 <1>  -0.1430 
 18 C       -6.4520    -1.5090     0.5370 C.ar  1 <1>  -0.1430 
 19 C       -7.9720    -0.5090    -1.2350 C.3   1 <1>  -0.0970 
 20 C       -7.5760    -2.4170     1.0170 C.3   1 <1>  -0.0970 
 21 H       -1.0460     1.3120    -0.6640 H     1 <1>   0.3700 
 22 H       -3.6450     1.3770    -2.5850 H     1 <1>   0.0800 
 23 H       -4.1610     2.5680    -1.3930 H     1 <1>   0.0800 
 24 H        0.5510     3.2010    -2.2820 H     1 <1>   0.0800 
 25 H        1.1440     2.0460    -1.1100 H     1 <1>   0.0800 
 26 H       -0.0990     4.7560    -0.5720 H     1 <1>   0.0800 
 27 H        0.4710     2.4950     1.3410 H     1 <1>   0.0800 
 28 H       -0.8890     3.6040     1.3660 H     1 <1>   0.0800 
 29 H       -5.7450     0.8690    -1.7290 H     1 <1>   0.1500 
 30 H        1.8610     6.0730     0.8270 H     1 <1>   0.0800 
 31 H        3.0410     4.8570     1.3240 H     1 <1>   0.0800 
 32 H        1.4970     3.9540     2.8090 H     1 <1>   0.0800 
 33 H        0.4120     5.2660     2.3970 H     1 <1>   0.0800 
 34 H       -5.0780    -2.2660     1.9800 H     1 <1>   0.1500 
 35 H       -2.0650    -1.1790     0.7900 H     1 <1>   0.0800 
 36 H       -2.8660    -1.5860     2.2870 H     1 <1>   0.0800 
 37 H       -2.5590     0.0860     1.8930 H     1 <1>   0.0800 
 38 H       -7.9340     0.2270    -2.0170 H     1 <1>   0.0800 
 39 H       -8.7420    -0.2230    -0.5410 H     1 <1>   0.0800 
 40 H       -8.2300    -1.4550    -1.6750 H     1 <1>   0.0800 
 41 H       -7.2520    -3.0350     1.8340 H     1 <1>   0.0800 
 42 H       -7.8970    -3.0590     0.2170 H     1 <1>   0.0800 
 43 H       -8.4100    -1.8260     1.3510 H     1 <1>   0.0800 
@<TRIPOS>BOND
  1   1   2  2   
  2   2   3  am  
  3   2   4  1   
  4   3   5  1   
  5   3  21  1   
  6   4   6  1   
  7   4  22  1   
  8   4  23  1   
  9   5   7  1   
 10   5  24  1   
 11   5  25  1   
 12   6   8  1   
 13   7   9  1   
 14   7  10  1   
 15   7  26  1   
 16   8  11  ar  
 17   8  12  ar  
 18   9  13  1   
 19  10  14  1   
 20  10  27  1   
 21  10  28  1   
 22  11  15  ar  
 23  11  16  1   
 24  12  17  ar  
 25  12  29  1   
 26  13  14  1   
 27  13  30  1   
 28  13  31  1   
 29  14  32  1   
 30  14  33  1   
 31  15  18  ar  
 32  15  34  1   
 33  16  35  1   
 34  16  36  1   
 35  16  37  1   
 36  17  18  ar  
 37  17  19  1   
 38  18  20  1   
 39  19  38  1   
 40  19  39  1   
 41  19  40  1   
 42  20  41  1   
 43  20  42  1   
 44  20  43  1   
@<TRIPOS>SUBSTRUCTURE
  1 ****   6 GROUP 4 **** **** 0

# MOE 2024.06 (io_trps.svl 2023.06)
