@<TRIPOS>MOLECULE
N-Adamantan-1-yl-2-(5-benzyl-[1,3,4]oxadiazol-2-ylsulfanyl)-acetamide
52 56 1 0 0 
SMALL
USER_CHARGES


@<TRIPOS>ATOM
  1 S       -1.4650    -0.7610     0.9940 S.3   1 <1>  -0.2860 
  2 C       -1.1480     0.9760     1.2870 C.2   1 <1>   0.5340 
  3 C       -2.4180    -0.7960    -0.6010 C.3   1 <1>   0.1310 
  4 O       -1.4010     1.8260     0.3490 O.3   1 <1>  -0.2800 
  5 N       -0.6860     1.4970     2.3540 N.2   1 <1>  -0.3380 
  6 C       -3.8870    -0.4990    -0.3480 C.2   1 <1>   0.5690 
  7 C       -1.0550     2.9530     0.8940 C.2   1 <1>   0.2980 
  8 N       -0.6270     2.8070     2.0930 N.2   1 <1>  -0.3380 
  9 O       -4.7010    -1.2940    -0.7510 O.2   1 <1>  -0.5700 
 10 N       -4.2280     0.6450     0.3060 N.am  1 <1>  -0.7300 
 11 C       -1.1560     4.2470     0.1080 C.3   1 <1>   0.1630 
 12 C       -5.5430     1.0520     0.8200 C.3   1 <1>   0.3000 
 13 C       -2.5760     4.5180    -0.3740 C.ar  1 <1>  -0.1430 
 14 C       -5.3360     2.3540     1.6150 C.3   1 <1>  -0.1600 
 15 C       -6.1240    -0.0160     1.7660 C.3   1 <1>  -0.1600 
 16 C       -6.5240     1.3190    -0.3350 C.3   1 <1>  -0.1600 
 17 C       -3.0690     3.8710    -1.4970 C.ar  1 <1>  -0.1500 
 18 C       -3.3850     5.4230     0.2990 C.ar  1 <1>  -0.1500 
 19 C       -6.6770     2.8530     2.1850 C.3   1 <1>  -0.0800 
 20 C       -7.4750     0.4630     2.3340 C.3   1 <1>  -0.0800 
 21 C       -7.8760     1.8030     0.2260 C.3   1 <1>  -0.0800 
 22 C       -4.3520     4.1280    -1.9460 C.ar  1 <1>  -0.1500 
 23 C       -4.6680     5.6820    -0.1510 C.ar  1 <1>  -0.1500 
 24 C       -7.2600     1.7730     3.1160 C.3   1 <1>  -0.1600 
 25 C       -7.6580     3.1030     1.0230 C.3   1 <1>  -0.1600 
 26 C       -8.4480     0.7240     1.1670 C.3   1 <1>  -0.1600 
 27 C       -5.1520     5.0350    -1.2750 C.ar  1 <1>  -0.1500 
 28 H       -2.3080    -1.7850    -1.0060 H     1 <1>   0.0800 
 29 H       -1.9860    -0.0780    -1.2700 H     1 <1>   0.0800 
 30 H       -3.4960     1.3090     0.5560 H     1 <1>   0.3700 
 31 H       -0.4960     4.1900    -0.7380 H     1 <1>   0.0800 
 32 H       -0.8180     5.0580     0.7280 H     1 <1>   0.0800 
 33 H       -4.9230     3.1070     0.9720 H     1 <1>   0.0800 
 34 H       -4.6470     2.1850     2.4240 H     1 <1>   0.0800 
 35 H       -5.4370    -0.2050     2.5720 H     1 <1>   0.0800 
 36 H       -6.2790    -0.9370     1.2340 H     1 <1>   0.0800 
 37 H       -6.6780     0.4160    -0.8990 H     1 <1>   0.0800 
 38 H       -6.1180     2.0630    -0.9950 H     1 <1>   0.0800 
 39 H       -2.4580     3.1650    -2.0330 H     1 <1>   0.1500 
 40 H       -3.0240     5.9330     1.1760 H     1 <1>   0.1500 
 41 H       -6.5230     3.7660     2.7350 H     1 <1>   0.0800 
 42 H       -7.8820    -0.2890     2.9870 H     1 <1>   0.0800 
 43 H       -8.5620     1.9810    -0.5840 H     1 <1>   0.0800 
 44 H       -4.7300     3.6220    -2.8180 H     1 <1>   0.1500 
 45 H       -5.2910     6.3860     0.3730 H     1 <1>   0.1500 
 46 H       -8.1970     2.1110     3.5240 H     1 <1>   0.0800 
 47 H       -6.5890     1.6000     3.9390 H     1 <1>   0.0800 
 48 H       -7.2670     3.8670     0.3750 H     1 <1>   0.0800 
 49 H       -8.5980     3.4540     1.4100 H     1 <1>   0.0800 
 50 H       -9.4000     1.0450     1.5510 H     1 <1>   0.0800 
 51 H       -8.6080    -0.1880     0.6180 H     1 <1>   0.0800 
 52 H       -6.1500     5.2360    -1.6260 H     1 <1>   0.1500 
@<TRIPOS>BOND
  1   1   2  1   
  2   1   3  1   
  3   2   4  1   
  4   2   5  2   
  5   3   6  1   
  6   3  28  1   
  7   3  29  1   
  8   4   7  1   
  9   5   8  1   
 10   6   9  2   
 11   6  10  am  
 12   7   8  2   
 13   7  11  1   
 14  10  12  1   
 15  10  30  1   
 16  11  13  1   
 17  11  31  1   
 18  11  32  1   
 19  12  14  1   
 20  12  15  1   
 21  12  16  1   
 22  13  17  ar  
 23  13  18  ar  
 24  14  19  1   
 25  14  33  1   
 26  14  34  1   
 27  15  20  1   
 28  15  35  1   
 29  15  36  1   
 30  16  21  1   
 31  16  37  1   
 32  16  38  1   
 33  17  22  ar  
 34  17  39  1   
 35  18  23  ar  
 36  18  40  1   
 37  19  24  1   
 38  19  25  1   
 39  19  41  1   
 40  20  24  1   
 41  20  26  1   
 42  20  42  1   
 43  21  25  1   
 44  21  26  1   
 45  21  43  1   
 46  22  27  ar  
 47  22  44  1   
 48  23  27  ar  
 49  23  45  1   
 50  24  46  1   
 51  24  47  1   
 52  25  48  1   
 53  25  49  1   
 54  26  50  1   
 55  26  51  1   
 56  27  52  1   
@<TRIPOS>SUBSTRUCTURE
  1 ****  10 GROUP 4 **** **** 0

# MOE 2024.06 (io_trps.svl 2023.06)
