@<TRIPOS>MOLECULE
8-(2-Methoxy-5-methyl-phenyl)-1,3-dimethyl-5,6,7,8-tetrahydro-1H-1,3,4b,8,9-pent
48 51 1 0 0 
SMALL
USER_CHARGES


@<TRIPOS>ATOM
  1 O        0.9850     1.8910    -2.0980 O.2   1 <1>  -0.5750 
  2 C        1.9930     1.9460    -1.4240 C.2   1 <1>   0.6860 
  3 N        2.2940     3.1050    -0.7140 N.am  1 <1>  -0.4260 
  4 N        2.8400     0.8470    -1.3580 N.am  1 <1>  -0.4420 
  5 C        3.4070     3.1720     0.1150 C.2   1 <1>   0.6990 
  6 C        1.3740     4.2800    -0.8240 C.3   1 <1>   0.0520 
  7 C        3.9420     0.9260    -0.5290 C.2   1 <1>   0.4200 
  8 C        2.5500    -0.3990    -2.1270 C.3   1 <1>   0.0520 
  9 O        3.6530     4.1800     0.7590 O.2   1 <1>  -0.5750 
 10 C        4.2550     2.0230     0.1940 C.2   1 <1>   0.2700 
 11 N        4.8830    -0.0280    -0.2960 N.pl3 1 <1>  -0.7040 
 12 N        5.4350     1.7120     0.8840 N.pl3 1 <1>  -0.7670 
 13 C        5.7800     0.4730     0.5490 C.cat 1 <1>   1.0690 
 14 C        6.2050     2.5870     1.7890 C.3   1 <1>   0.3480 
 15 N        6.8780    -0.1430     1.0260 N.pl3 1 <1>  -0.5800 
 16 C        7.1160     1.7150     2.6590 C.3   1 <1>  -0.1680 
 17 C        7.2370    -1.4610     0.6740 C.ar  1 <1>   0.3050 
 18 C        7.8470     0.6410     1.8400 C.3   1 <1>   0.1600 
 19 C        7.4650    -1.8370    -0.6580 C.ar  1 <1>   0.0740 
 20 C        7.3550    -2.4170     1.6740 C.ar  1 <1>  -0.1580 
 21 O        7.3300    -0.8860    -1.6290 O.3   1 <1>  -0.3690 
 22 C        7.8060    -3.1510    -0.9540 C.ar  1 <1>  -0.1580 
 23 C        7.6950    -3.7250     1.3770 C.ar  1 <1>  -0.1510 
 24 C        7.8980    -1.0750    -2.9100 C.3   1 <1>   0.0320 
 25 C        7.9190    -4.0850     0.0600 C.ar  1 <1>  -0.1580 
 26 C        7.8210    -4.7640     2.4770 C.3   1 <1>  -0.1040 
 27 H        1.0100     4.3730    -1.8330 H     1 <1>   0.0720 
 28 H        1.8800     5.1940    -0.5650 H     1 <1>   0.0720 
 29 H        0.5360     4.1440    -0.1630 H     1 <1>   0.0720 
 30 H        1.8790    -0.1940    -2.9440 H     1 <1>   0.0720 
 31 H        2.0910    -1.1250    -1.4790 H     1 <1>   0.0720 
 32 H        3.4580    -0.8050    -2.5350 H     1 <1>   0.0720 
 33 H        5.0080    -0.9280    -0.7530 H     1 <1>   0.4440 
 34 H        5.5370     3.1600     2.4110 H     1 <1>   0.0720 
 35 H        6.7960     3.2700     1.2010 H     1 <1>   0.0720 
 36 H        6.5280     1.2390     3.4250 H     1 <1>   0.0720 
 37 H        7.8370     2.3410     3.1560 H     1 <1>   0.0720 
 38 H        8.5600     1.1050     1.1780 H     1 <1>   0.0720 
 39 H        8.3880    -0.0130     2.5050 H     1 <1>   0.0720 
 40 H        7.1740    -2.1370     2.6960 H     1 <1>   0.1420 
 41 H        7.9870    -3.4760    -1.9620 H     1 <1>   0.1420 
 42 H        7.8090    -0.1540    -3.4580 H     1 <1>   0.0720 
 43 H        7.3640    -1.8550    -3.4230 H     1 <1>   0.0720 
 44 H        8.9370    -1.3320    -2.8000 H     1 <1>   0.0720 
 45 H        8.1840    -5.1020    -0.1800 H     1 <1>   0.1420 
 46 H        6.9520    -5.3970     2.4830 H     1 <1>   0.0720 
 47 H        7.9150    -4.2960     3.4410 H     1 <1>   0.0720 
 48 H        8.6920    -5.3750     2.3120 H     1 <1>   0.0720 
@<TRIPOS>BOND
  1   1   2  2   
  2   2   3  am  
  3   2   4  am  
  4   3   5  am  
  5   3   6  1   
  6   4   7  1   
  7   4   8  1   
  8   5   9  2   
  9   5  10  1   
 10   6  27  1   
 11   6  28  1   
 12   6  29  1   
 13   7  10  2   
 14   7  11  1   
 15   8  30  1   
 16   8  31  1   
 17   8  32  1   
 18  10  12  1   
 19  11  13  ar  
 20  11  33  1   
 21  12  13  ar  
 22  12  14  1   
 23  13  15  ar  
 24  14  16  1   
 25  14  34  1   
 26  14  35  1   
 27  15  17  1   
 28  15  18  1   
 29  16  18  1   
 30  16  36  1   
 31  16  37  1   
 32  17  19  ar  
 33  17  20  ar  
 34  18  38  1   
 35  18  39  1   
 36  19  21  1   
 37  19  22  ar  
 38  20  23  ar  
 39  20  40  1   
 40  21  24  1   
 41  22  25  ar  
 42  22  41  1   
 43  23  25  ar  
 44  23  26  1   
 45  24  42  1   
 46  24  43  1   
 47  24  44  1   
 48  25  45  1   
 49  26  46  1   
 50  26  47  1   
 51  26  48  1   
@<TRIPOS>SUBSTRUCTURE
  1 ****  11 GROUP 4 **** **** 0

# MOE 2024.06 (io_trps.svl 2023.06)
