@<TRIPOS>MOLECULE
4-Methyl-4,5,6,7-tetrahydro-thieno[3,2-c]pyridine
22 23 1 0 0 
SMALL
USER_CHARGES


@<TRIPOS>ATOM
  1 S       -0.0040    -0.1510     0.5480 S.3   1 <1>  -0.0800 
  2 C        1.2590     1.0120     0.2100 C.2   1 <1>  -0.1400 
  3 C       -1.2360     1.0390     0.1630 C.2   1 <1>  -0.1100 
  4 C        0.7560     2.2050    -0.1480 C.2   1 <1>  -0.1810 
  5 C        2.7150     0.6300     0.3250 C.3   1 <1>   0.0200 
  6 C       -0.6790     2.2160    -0.1840 C.2   1 <1>  -0.1500 
  7 C        1.6590     3.3840    -0.4860 C.3   1 <1>   0.6040 
  8 C        3.5540     1.7540    -0.3050 C.3   1 <1>   0.3430 
  9 N        3.0130     3.1100     0.0550 N.4   1 <1>  -0.9060 
 10 C        1.1770     4.6780     0.1560 C.3   1 <1>  -0.2400 
 11 H       -2.2630     0.7240     0.2360 H     1 <1>   0.1500 
 12 H        2.8990    -0.2950    -0.1920 H     1 <1>   0.0800 
 13 H        2.9760     0.4960     1.3600 H     1 <1>   0.0800 
 14 H       -1.2420     3.0900    -0.4650 H     1 <1>   0.1500 
 15 H        1.7020     3.5010    -1.5580 H     1 <1>   0.0800 
 16 H        3.5360     1.6400    -1.3770 H     1 <1>   0.0800 
 17 H        4.5770     1.6590     0.0240 H     1 <1>   0.0800 
 18 H        2.9200     3.1620     1.0740 H     1 <1>   0.4500 
 19 H        3.6490     3.8560    -0.2420 H     1 <1>   0.4500 
 20 H        1.0530     4.5560     1.2180 H     1 <1>   0.0800 
 21 H        0.2240     4.9530    -0.2590 H     1 <1>   0.0800 
 22 H        1.8610     5.4830    -0.0420 H     1 <1>   0.0800 
@<TRIPOS>BOND
  1   1   2  1   
  2   1   3  1   
  3   2   4  2   
  4   2   5  1   
  5   3   6  2   
  6   3  11  1   
  7   4   6  1   
  8   4   7  1   
  9   5   8  1   
 10   5  12  1   
 11   5  13  1   
 12   6  14  1   
 13   7   9  1   
 14   7  10  1   
 15   7  15  1   
 16   8   9  1   
 17   8  16  1   
 18   8  17  1   
 19   9  18  1   
 20   9  19  1   
 21  10  20  1   
 22  10  21  1   
 23  10  22  1   
@<TRIPOS>SUBSTRUCTURE
  1 ****   4 GROUP 4 **** **** 0

# MOE 2024.06 (io_trps.svl 2023.06)
