@<TRIPOS>MOLECULE
5-(4-Hydroxy-3-methoxy-phenyl)-1-methyl-2-methylsulfanyl-5,8-dihydro-1H,6H-pyrid
41 43 1 0 0 
SMALL
USER_CHARGES


@<TRIPOS>ATOM
  1 S       -0.1820     0.8430     0.2480 S.3   1 <1>  -0.3710 
  2 C        1.4570     1.5460     0.3600 C.2   1 <1>   0.6410 
  3 C       -1.3040     2.1540     0.9160 C.3   1 <1>  -0.0100 
  4 N        1.5430     2.7280     0.8360 N.2   1 <1>  -0.6610 
  5 N        2.5070     0.7610    -0.0650 N.pl3 1 <1>  -0.5190 
  6 C        2.7890     3.2620     0.9390 C.2   1 <1>   0.7670 
  7 C        3.7760     1.2810     0.0440 C.2   1 <1>   0.2090 
  8 C        2.2340    -0.5820    -0.6670 C.3   1 <1>   0.1290 
  9 O        2.8710     4.3490     1.4940 O.2   1 <1>  -0.5700 
 10 C        3.9290     2.5620     0.4760 C.2   1 <1>  -0.1240 
 11 N        4.8690     0.4910    -0.2270 N.am  1 <1>  -0.5390 
 12 C        5.3170     3.2170     0.5300 C.3   1 <1>   0.2020 
 13 C        6.1530     0.9160    -0.2090 C.2   1 <1>   0.5690 
 14 C        5.3300     4.6200    -0.0780 C.ar  1 <1>  -0.1440 
 15 C        6.4170     2.4020    -0.1830 C.3   1 <1>  -0.0990 
 16 O        7.0620     0.1320    -0.2480 O.2   1 <1>  -0.5700 
 17 C        5.9560     5.6610     0.5940 C.ar  1 <1>  -0.1500 
 18 C        4.7310     4.8760    -1.3040 C.ar  1 <1>  -0.1500 
 19 C        5.9890     6.9420     0.0680 C.ar  1 <1>   0.0820 
 20 C        4.7590     6.1480    -1.8480 C.ar  1 <1>  -0.1500 
 21 O        6.6290     7.8720     0.8310 O.3   1 <1>  -0.3630 
 22 C        5.3870     7.1840    -1.1750 C.ar  1 <1>   0.0820 
 23 C        6.1350     9.1920     0.9010 C.3   1 <1>   0.0400 
 24 O        5.4030     8.3930    -1.7770 O.3   1 <1>  -0.5330 
 25 H       -2.3120     1.7830     0.8710 H     1 <1>   0.0800 
 26 H       -1.1880     3.0320     0.3050 H     1 <1>   0.0800 
 27 H       -1.0110     2.3550     1.9310 H     1 <1>   0.0800 
 28 H        1.8950    -1.2590     0.0990 H     1 <1>   0.0800 
 29 H        3.1070    -0.9960    -1.1360 H     1 <1>   0.0800 
 30 H        1.4730    -0.4980    -1.4230 H     1 <1>   0.0800 
 31 H        4.7610    -0.5180    -0.3040 H     1 <1>   0.3700 
 32 H        5.5790     3.2870     1.5720 H     1 <1>   0.0800 
 33 H        7.3650     2.5890     0.2870 H     1 <1>   0.0800 
 34 H        6.4980     2.7150    -1.2070 H     1 <1>   0.0800 
 35 H        6.4250     5.4950     1.5460 H     1 <1>   0.1500 
 36 H        4.2360     4.0870    -1.8440 H     1 <1>   0.1500 
 37 H        4.2880     6.3220    -2.7970 H     1 <1>   0.1500 
 38 H        6.5130     9.6430     1.8000 H     1 <1>   0.0800 
 39 H        5.0600     9.1640     0.9240 H     1 <1>   0.0800 
 40 H        6.4840     9.7390     0.0440 H     1 <1>   0.0800 
 41 H        4.9650     8.3830    -2.6450 H     1 <1>   0.4500 
@<TRIPOS>BOND
  1   1   2  1   
  2   1   3  1   
  3   2   4  2   
  4   2   5  1   
  5   3  25  1   
  6   3  26  1   
  7   3  27  1   
  8   4   6  1   
  9   5   7  1   
 10   5   8  1   
 11   6   9  2   
 12   6  10  1   
 13   7  10  2   
 14   7  11  1   
 15   8  28  1   
 16   8  29  1   
 17   8  30  1   
 18  10  12  1   
 19  11  13  am  
 20  11  31  1   
 21  12  14  1   
 22  12  15  1   
 23  12  32  1   
 24  13  15  1   
 25  13  16  2   
 26  14  17  ar  
 27  14  18  ar  
 28  15  33  1   
 29  15  34  1   
 30  17  19  ar  
 31  17  35  1   
 32  18  20  ar  
 33  18  36  1   
 34  19  21  1   
 35  19  22  ar  
 36  20  22  ar  
 37  20  37  1   
 38  21  23  1   
 39  22  24  1   
 40  23  38  1   
 41  23  39  1   
 42  23  40  1   
 43  24  41  1   
@<TRIPOS>SUBSTRUCTURE
  1 ****  10 GROUP 4 **** **** 0

# MOE 2024.06 (io_trps.svl 2023.06)
