@<TRIPOS>MOLECULE
N-(1-Acetyl-piperidin-4-yl)-N-benzo[1,3]dioxol-5-yl-benzenesulfonamide
50 53 1 0 0 
SMALL
USER_CHARGES


@<TRIPOS>ATOM
  1 S       -0.1630    -0.4300     1.7910 S.o2  1 <1>   1.4470 
  2 O       -1.4940    -0.8070     2.2170 O.2   1 <1>  -0.6500 
  3 O        0.8950    -0.2880     2.7660 O.2   1 <1>  -0.6500 
  4 N       -0.3220     1.1070     1.0070 N.am  1 <1>  -0.6930 
  5 C        0.3540    -1.4940     0.4170 C.ar  1 <1>  -0.0090 
  6 C        0.7480     1.6350     0.2870 C.ar  1 <1>   0.1990 
  7 C       -1.5010     1.9270     1.3740 C.3   1 <1>   0.2760 
  8 C       -0.5790    -2.1840    -0.3500 C.ar  1 <1>  -0.1500 
  9 C        1.6950    -1.6150     0.0710 C.ar  1 <1>  -0.1500 
 10 C        1.8960     2.0740     0.9430 C.ar  1 <1>  -0.1500 
 11 C        0.6770     1.7140    -1.1060 C.ar  1 <1>  -0.1500 
 12 C       -2.6380     1.6660     0.3820 C.3   1 <1>  -0.1600 
 13 C       -1.1790     3.4260     1.4420 C.3   1 <1>  -0.1600 
 14 C       -0.1890    -2.9710    -1.4200 C.ar  1 <1>  -0.1500 
 15 C        2.0940    -2.3990    -0.9980 C.ar  1 <1>  -0.1500 
 16 C        2.9290     2.5820     0.1840 C.ar  1 <1>   0.0830 
 17 C        1.7270     2.2270    -1.8550 C.ar  1 <1>  -0.1500 
 18 C       -3.8780     2.4780     0.7610 C.3   1 <1>   0.1400 
 19 C       -2.4280     4.2270     1.8130 C.3   1 <1>   0.1400 
 20 C        1.1510    -3.0780    -1.7460 C.ar  1 <1>  -0.1500 
 21 O        4.1080     3.0570     0.6010 O.3   1 <1>  -0.3630 
 22 C        2.8480     2.6570    -1.1750 C.ar  1 <1>   0.0830 
 23 N       -3.5200     3.9220     0.8440 N.am  1 <1>  -0.6600 
 24 C        4.8200     3.4650    -0.5650 C.3   1 <1>   0.4000 
 25 O        3.9730     3.1830    -1.6780 O.3   1 <1>  -0.3630 
 26 C       -4.1150     4.9240     0.1190 C.2   1 <1>   0.5690 
 27 O       -3.8080     6.0840     0.2480 O.2   1 <1>  -0.5700 
 28 C       -5.2000     4.6110    -0.8860 C.3   1 <1>  -0.1790 
 29 H       -1.8310     1.6290     2.3560 H     1 <1>   0.0800 
 30 H       -1.6250    -2.1080    -0.1050 H     1 <1>   0.1500 
 31 H        2.4390    -1.0860     0.6450 H     1 <1>   0.1500 
 32 H        1.9800     2.0210     2.0130 H     1 <1>   0.1500 
 33 H       -0.2080     1.3630    -1.6040 H     1 <1>   0.1500 
 34 H       -2.8930     0.6220     0.3870 H     1 <1>   0.0800 
 35 H       -2.3340     1.9410    -0.6110 H     1 <1>   0.0800 
 36 H       -0.8240     3.7840     0.4920 H     1 <1>   0.0800 
 37 H       -0.4200     3.6010     2.1820 H     1 <1>   0.0800 
 38 H       -0.9270    -3.4990    -2.0000 H     1 <1>   0.1500 
 39 H        3.1390    -2.4780    -1.2480 H     1 <1>   0.1500 
 40 H        1.6820     2.2920    -2.9270 H     1 <1>   0.1500 
 41 H       -4.2450     2.1540     1.7210 H     1 <1>   0.0800 
 42 H       -4.6520     2.3040     0.0370 H     1 <1>   0.0800 
 43 H       -2.1930     5.2780     1.8060 H     1 <1>   0.0800 
 44 H       -2.7560     3.9680     2.8050 H     1 <1>   0.0800 
 45 H        1.4580    -3.6890    -2.5770 H     1 <1>   0.1500 
 46 H        5.7290     2.8970    -0.6500 H     1 <1>   0.0800 
 47 H        5.0130     4.5220    -0.5180 H     1 <1>   0.0800 
 48 H       -6.0380     4.1610    -0.3900 H     1 <1>   0.0800 
 49 H       -4.8180     3.9490    -1.6400 H     1 <1>   0.0800 
 50 H       -5.5280     5.5180    -1.3590 H     1 <1>   0.0800 
@<TRIPOS>BOND
  1   1   2  2   
  2   1   3  2   
  3   1   4  am  
  4   1   5  1   
  5   4   6  1   
  6   4   7  1   
  7   5   8  ar  
  8   5   9  ar  
  9   6  10  ar  
 10   6  11  ar  
 11   7  12  1   
 12   7  13  1   
 13   7  29  1   
 14   8  14  ar  
 15   8  30  1   
 16   9  15  ar  
 17   9  31  1   
 18  10  16  ar  
 19  10  32  1   
 20  11  17  ar  
 21  11  33  1   
 22  12  18  1   
 23  12  34  1   
 24  12  35  1   
 25  13  19  1   
 26  13  36  1   
 27  13  37  1   
 28  14  20  ar  
 29  14  38  1   
 30  15  20  ar  
 31  15  39  1   
 32  16  21  1   
 33  16  22  ar  
 34  17  22  ar  
 35  17  40  1   
 36  18  23  1   
 37  18  41  1   
 38  18  42  1   
 39  19  23  1   
 40  19  43  1   
 41  19  44  1   
 42  20  45  1   
 43  21  24  1   
 44  22  25  1   
 45  23  26  am  
 46  24  25  1   
 47  24  46  1   
 48  24  47  1   
 49  26  27  2   
 50  26  28  1   
 51  28  48  1   
 52  28  49  1   
 53  28  50  1   
@<TRIPOS>SUBSTRUCTURE
  1 ****   6 GROUP 4 **** **** 0

# MOE 2024.06 (io_trps.svl 2023.06)
