@<TRIPOS>MOLECULE
C-(2-Methyl-2,3-dihydro-benzofuran-5-yl)-methylamine
26 27 1 0 0 
SMALL
USER_CHARGES


@<TRIPOS>ATOM
  1 O        0.2370     0.0590     0.1870 O.3   1 <1>  -0.3630 
  2 C        1.4750     0.5380     0.3730 C.ar  1 <1>   0.0830 
  3 C       -0.6090     1.0790    -0.3230 C.3   1 <1>   0.2000 
  4 C        1.5910     1.8640     0.0540 C.ar  1 <1>  -0.1440 
  5 C        2.5510    -0.1900     0.8390 C.ar  1 <1>  -0.1500 
  6 C        0.2490     2.3610    -0.3980 C.3   1 <1>  -0.0170 
  7 C       -1.8170     1.2040     0.6050 C.3   1 <1>  -0.2400 
  8 C        2.8030     2.5150     0.1840 C.ar  1 <1>  -0.1500 
  9 C        3.7720     0.4500     0.9750 C.ar  1 <1>  -0.1500 
 10 C        3.9040     1.7980     0.6430 C.ar  1 <1>  -0.1440 
 11 C        5.2460     2.4770     0.7710 C.3   1 <1>   0.4860 
 12 N        5.9330     2.2730    -0.5170 N.4   1 <1>  -0.8530 
 13 H       -0.9170     0.7750    -1.3090 H     1 <1>   0.0800 
 14 H        2.4200    -1.2290     1.0880 H     1 <1>   0.1500 
 15 H       -0.1210     3.1270     0.2590 H     1 <1>   0.0800 
 16 H        0.2840     2.7350    -1.4050 H     1 <1>   0.0800 
 17 H       -1.4990     1.4570     1.6010 H     1 <1>   0.0800 
 18 H       -2.3540     0.2730     0.6300 H     1 <1>   0.0800 
 19 H       -2.4800     1.9700     0.2470 H     1 <1>   0.0800 
 20 H        2.8650     3.5610    -0.0670 H     1 <1>   0.1500 
 21 H        4.6080    -0.1200     1.3460 H     1 <1>   0.1500 
 22 H        5.8090     2.0360     1.5790 H     1 <1>   0.0800 
 23 H        5.1120     3.5280     0.9700 H     1 <1>   0.0800 
 24 H        6.0120     1.2670    -0.6980 H     1 <1>   0.4500 
 25 H        6.8620     2.7020    -0.5350 H     1 <1>   0.4500 
 26 H        5.3560     2.6640    -1.2690 H     1 <1>   0.4500 
@<TRIPOS>BOND
  1   1   2  1   
  2   1   3  1   
  3   2   4  ar  
  4   2   5  ar  
  5   3   6  1   
  6   3   7  1   
  7   3  13  1   
  8   4   6  1   
  9   4   8  ar  
 10   5   9  ar  
 11   5  14  1   
 12   6  15  1   
 13   6  16  1   
 14   7  17  1   
 15   7  18  1   
 16   7  19  1   
 17   8  10  ar  
 18   8  20  1   
 19   9  10  ar  
 20   9  21  1   
 21  10  11  1   
 22  11  12  1   
 23  11  22  1   
 24  11  23  1   
 25  12  24  1   
 26  12  25  1   
 27  12  26  1   
@<TRIPOS>SUBSTRUCTURE
  1 ****   4 GROUP 4 **** **** 0

# MOE 2024.06 (io_trps.svl 2023.06)
