@<TRIPOS>MOLECULE
4-(4-Dimethylamino-phenyl)-2,7-dimethyl-5-oxo-1,4,5,6,7,8-hexahydro-quinoline-3-
62 65 1 0 0 
SMALL
USER_CHARGES


@<TRIPOS>ATOM
  1 O       -0.0390    -1.0210    -2.0720 O.2   1 <1>  -0.5700 
  2 C        0.0780    -1.8990    -1.2490 C.2   1 <1>   0.4950 
  3 C        1.3220    -2.3760    -0.7460 C.2   1 <1>  -0.1240 
  4 C       -1.1980    -2.5720    -0.7710 C.3   1 <1>  -0.0990 
  5 C        1.4330    -3.4400     0.0880 C.2   1 <1>  -0.0380 
  6 C        2.5790    -1.6250    -1.1900 C.3   1 <1>   0.3400 
  7 C       -1.0270    -3.2460     0.6030 C.3   1 <1>  -0.0800 
  8 N        2.6560    -3.9320     0.4780 N.pl3 1 <1>  -0.6000 
  9 C        0.2070    -4.1660     0.6190 C.3   1 <1>  -0.0220 
 10 C        3.8800    -2.3540    -0.8350 C.2   1 <1>  -0.1240 
 11 C        2.6060    -0.2550    -0.5100 C.ar  1 <1>  -0.1440 
 12 C       -2.2950    -4.0160     0.9960 C.3   1 <1>  -0.2400 
 13 C        3.8450    -3.4500    -0.0280 C.2   1 <1>  -0.0380 
 14 C        5.0340    -1.7340    -1.4090 C.2   1 <1>   0.6160 
 15 C        2.6030     0.9100    -1.2640 C.ar  1 <1>  -0.1500 
 16 C        2.6400    -0.1590     0.8760 C.ar  1 <1>  -0.1500 
 17 C        5.0530    -4.2740     0.3890 C.3   1 <1>  -0.1020 
 18 O        5.0550    -1.4300    -2.5860 O.2   1 <1>  -0.5700 
 19 N        6.1150    -1.4750    -0.6090 N.am  1 <1>  -0.5470 
 20 C        2.6350     2.1450    -0.6430 C.ar  1 <1>  -0.1500 
 21 C        2.6710     1.0780     1.4920 C.ar  1 <1>  -0.1500 
 22 C        7.4100    -1.0810    -0.8490 C.ar  1 <1>   0.4270 
 23 C        2.6680     2.2450     0.7430 C.ar  1 <1>   0.1000 
 24 N        8.1890    -1.2380     0.2120 N.ar  1 <1>  -0.6200 
 25 C        7.8690    -0.5730    -2.0630 C.ar  1 <1>  -0.1500 
 26 N        2.7040     3.4770     1.3850 N.pl3 1 <1>  -0.8380 
 27 C        9.4550    -0.8890     0.0700 C.ar  1 <1>   0.1670 
 28 C        9.1890    -0.2130    -2.2020 C.ar  1 <1>  -0.1500 
 29 C        4.0190     4.1650     1.3830 C.3   1 <1>   0.1290 
 30 C        1.5400     4.3720     1.1610 C.3   1 <1>   0.1290 
 31 C        9.9980    -0.3810    -1.0980 C.ar  1 <1>  -0.1500 
 32 C       10.3290    -1.0760     1.2930 C.3   1 <1>  -0.0970 
 33 H       -1.4830    -3.3000    -1.5080 H     1 <1>   0.0800 
 34 H       -1.9760    -1.8320    -0.7150 H     1 <1>   0.0800 
 35 H        2.5320    -1.5060    -2.2590 H     1 <1>   0.0800 
 36 H       -0.8660    -2.4680     1.3320 H     1 <1>   0.0800 
 37 H        2.6870    -4.7440     1.1050 H     1 <1>   0.4000 
 38 H        0.3860    -4.4860     1.6300 H     1 <1>   0.0800 
 39 H        0.0320    -5.0390     0.0140 H     1 <1>   0.0800 
 40 H       -2.4980    -4.8050     0.2920 H     1 <1>   0.0800 
 41 H       -3.1420    -3.3530     1.0190 H     1 <1>   0.0800 
 42 H       -2.1820    -4.4500     1.9740 H     1 <1>   0.0800 
 43 H        2.5740     0.8580    -2.3380 H     1 <1>   0.1500 
 44 H        2.6410    -1.0510     1.4780 H     1 <1>   0.1500 
 45 H        4.8470    -5.3200     0.2500 H     1 <1>   0.0800 
 46 H        5.2780    -4.1000     1.4260 H     1 <1>   0.0800 
 47 H        5.9220    -4.0410    -0.1980 H     1 <1>   0.0800 
 48 H        5.9720    -1.6780     0.3750 H     1 <1>   0.3700 
 49 H        2.6340     3.0420    -1.2320 H     1 <1>   0.1500 
 50 H        2.6970     1.1580     2.5620 H     1 <1>   0.1500 
 51 H        7.1990    -0.4550    -2.8920 H     1 <1>   0.1500 
 52 H        9.5710     0.1800    -3.1280 H     1 <1>   0.1500 
 53 H        4.8090     3.4370     1.4570 H     1 <1>   0.0800 
 54 H        4.0820     4.8310     2.2260 H     1 <1>   0.0800 
 55 H        4.1430     4.7240     0.4730 H     1 <1>   0.0800 
 56 H        0.6460     3.7840     1.0440 H     1 <1>   0.0800 
 57 H        1.6890     4.9620     0.2740 H     1 <1>   0.0800 
 58 H        1.4170     5.0240     2.0080 H     1 <1>   0.0800 
 59 H       11.0380    -0.1170    -1.1510 H     1 <1>   0.1500 
 60 H       10.3300    -2.1120     1.5780 H     1 <1>   0.0800 
 61 H        9.9370    -0.4930     2.1060 H     1 <1>   0.0800 
 62 H       11.3400    -0.7680     1.1000 H     1 <1>   0.0800 
@<TRIPOS>BOND
  1   1   2  2   
  2   2   3  1   
  3   2   4  1   
  4   3   5  2   
  5   3   6  1   
  6   4   7  1   
  7   4  33  1   
  8   4  34  1   
  9   5   8  1   
 10   5   9  1   
 11   6  10  1   
 12   6  11  1   
 13   6  35  1   
 14   7   9  1   
 15   7  12  1   
 16   7  36  1   
 17   8  13  1   
 18   8  37  1   
 19   9  38  1   
 20   9  39  1   
 21  10  13  2   
 22  10  14  1   
 23  11  15  ar  
 24  11  16  ar  
 25  12  40  1   
 26  12  41  1   
 27  12  42  1   
 28  13  17  1   
 29  14  18  2   
 30  14  19  am  
 31  15  20  ar  
 32  15  43  1   
 33  16  21  ar  
 34  16  44  1   
 35  17  45  1   
 36  17  46  1   
 37  17  47  1   
 38  19  22  1   
 39  19  48  1   
 40  20  23  ar  
 41  20  49  1   
 42  21  23  ar  
 43  21  50  1   
 44  22  24  ar  
 45  22  25  ar  
 46  23  26  1   
 47  24  27  ar  
 48  25  28  ar  
 49  25  51  1   
 50  26  29  1   
 51  26  30  1   
 52  27  31  ar  
 53  27  32  1   
 54  28  31  ar  
 55  28  52  1   
 56  29  53  1   
 57  29  54  1   
 58  29  55  1   
 59  30  56  1   
 60  30  57  1   
 61  30  58  1   
 62  31  59  1   
 63  32  60  1   
 64  32  61  1   
 65  32  62  1   
@<TRIPOS>SUBSTRUCTURE
  1 ****  11 GROUP 4 **** **** 0

# MOE 2024.06 (io_trps.svl 2023.06)
