@<TRIPOS>MOLECULE
8-Dimethylamino-7-[3-(3,4-dimethyl-phenoxy)-2-hydroxy-propyl]-3-methyl-3,7-dihyd
54 56 1 0 0 
SMALL
USER_CHARGES


@<TRIPOS>ATOM
  1 O        7.8190     1.0590     3.3720 O.2   1 <1>  -0.5740 
  2 C        7.5480     1.5230     2.2870 C.2   1 <1>   0.6870 
  3 N        8.0940     1.0250     1.1130 N.am  1 <1>  -0.4410 
  4 N        6.6510     2.5490     2.2210 N.am  1 <1>  -0.4950 
  5 C        7.7050     1.6190    -0.0780 C.2   1 <1>   0.4210 
  6 C        9.0830    -0.0900     1.1340 C.3   1 <1>   0.0530 
  7 C        6.2480     3.1320     1.0530 C.2   1 <1>   0.7000 
  8 N        8.1270     1.3090    -1.3300 N.pl3 1 <1>  -0.7030 
  9 C        6.8060     2.6240    -0.1680 C.2   1 <1>   0.2710 
 10 O        5.4380     4.0400     1.0970 O.2   1 <1>  -0.5740 
 11 C        7.4990     2.0960    -2.2060 C.cat 1 <1>   1.0690 
 12 N        6.6710     2.9230    -1.5420 N.pl3 1 <1>  -0.7670 
 13 N        7.7060     1.9690    -3.5420 N.pl3 1 <1>  -0.5960 
 14 C        5.9450     4.1460    -2.0240 C.3   1 <1>   0.3480 
 15 C        8.9460     1.3710    -4.1210 C.3   1 <1>   0.0800 
 16 C        6.7430     2.4080    -4.5920 C.3   1 <1>   0.0800 
 17 C        6.8470     5.3900    -2.2290 C.3   1 <1>   0.1940 
 18 O        7.8720     5.1000    -3.1230 O.3   1 <1>  -0.6840 
 19 C        7.4650     5.9180    -0.9250 C.3   1 <1>   0.1130 
 20 O        8.5830     5.1180    -0.5720 O.3   1 <1>  -0.3680 
 21 C        8.9370     4.9030     0.7170 C.ar  1 <1>   0.0750 
 22 C        9.8870     3.9200     0.9410 C.ar  1 <1>  -0.1570 
 23 C        8.3770     5.5700     1.8000 C.ar  1 <1>  -0.1570 
 24 C       10.2440     3.5550     2.2280 C.ar  1 <1>  -0.1500 
 25 C        8.7290     5.2070     3.0860 C.ar  1 <1>  -0.1570 
 26 C        9.6490     4.1940     3.3100 C.ar  1 <1>  -0.1500 
 27 C       11.2850     2.4630     2.4330 C.3   1 <1>  -0.1040 
 28 C        9.9890     3.8120     4.7430 C.3   1 <1>  -0.1040 
 29 H        6.3360     2.9460     3.1020 H     1 <1>   0.3650 
 30 H        9.3440    -0.3520     2.1460 H     1 <1>   0.0730 
 31 H        9.9810     0.2080     0.6230 H     1 <1>   0.0730 
 32 H        8.6650    -0.9580     0.6550 H     1 <1>   0.0730 
 33 H        8.7810     0.5810    -1.5890 H     1 <1>   0.4450 
 34 H        5.1720     4.3990    -1.3210 H     1 <1>   0.0730 
 35 H        5.4390     3.9390    -2.9470 H     1 <1>   0.0730 
 36 H        9.7270     1.2970    -3.3850 H     1 <1>   0.0730 
 37 H        9.3070     1.9950    -4.9230 H     1 <1>   0.0730 
 38 H        8.7320     0.3920    -4.5150 H     1 <1>   0.0730 
 39 H        6.8470     1.7930    -5.4710 H     1 <1>   0.0730 
 40 H        5.7310     2.3080    -4.2420 H     1 <1>   0.0730 
 41 H        6.9360     3.4310    -4.8680 H     1 <1>   0.0730 
 42 H        6.2490     6.1700    -2.6680 H     1 <1>   0.0730 
 43 H        8.7290     5.2130    -2.6530 H     1 <1>   0.3950 
 44 H        6.7250     5.8910    -0.1480 H     1 <1>   0.0730 
 45 H        7.8080     6.9310    -1.0470 H     1 <1>   0.0730 
 46 H       10.3450     3.4420     0.0960 H     1 <1>   0.1430 
 47 H        7.6700     6.3680     1.6740 H     1 <1>   0.1430 
 48 H        8.2820     5.7220     3.9180 H     1 <1>   0.1430 
 49 H       11.6250     2.0690     1.4940 H     1 <1>   0.0730 
 50 H       10.8680     1.6600     3.0130 H     1 <1>   0.0730 
 51 H       12.1340     2.8640     2.9560 H     1 <1>   0.0730 
 52 H        9.7280     2.7830     4.9200 H     1 <1>   0.0730 
 53 H        9.4490     4.4210     5.4460 H     1 <1>   0.0730 
 54 H       11.0400     3.9440     4.9220 H     1 <1>   0.0730 
@<TRIPOS>BOND
  1   1   2  2   
  2   2   3  am  
  3   2   4  am  
  4   3   5  1   
  5   3   6  1   
  6   4   7  am  
  7   4  29  1   
  8   5   8  1   
  9   5   9  2   
 10   6  30  1   
 11   6  31  1   
 12   6  32  1   
 13   7   9  1   
 14   7  10  2   
 15   8  11  ar  
 16   8  33  1   
 17   9  12  1   
 18  11  12  ar  
 19  11  13  ar  
 20  12  14  1   
 21  13  15  1   
 22  13  16  1   
 23  14  17  1   
 24  14  34  1   
 25  14  35  1   
 26  15  36  1   
 27  15  37  1   
 28  15  38  1   
 29  16  39  1   
 30  16  40  1   
 31  16  41  1   
 32  17  18  1   
 33  17  19  1   
 34  17  42  1   
 35  18  43  1   
 36  19  20  1   
 37  19  44  1   
 38  19  45  1   
 39  20  21  1   
 40  21  22  ar  
 41  21  23  ar  
 42  22  24  ar  
 43  22  46  1   
 44  23  25  ar  
 45  23  47  1   
 46  24  26  ar  
 47  24  27  1   
 48  25  26  ar  
 49  25  48  1   
 50  26  28  1   
 51  27  49  1   
 52  27  50  1   
 53  27  51  1   
 54  28  52  1   
 55  28  53  1   
 56  28  54  1   
@<TRIPOS>SUBSTRUCTURE
  1 ****   9 GROUP 4 **** **** 0

# MOE 2024.06 (io_trps.svl 2023.06)
