@<TRIPOS>MOLECULE
2-Ethylsulfanyl-5-(2-methoxy-phenyl)-1-methyl-5,8-dihydro-1H,6H-pyrido[2,3-d]pyr
43 45 1 0 0 
SMALL
USER_CHARGES


@<TRIPOS>ATOM
  1 S        0.6100     0.3240    -1.2190 S.3   1 <1>  -0.3710 
  2 C        1.8680     1.2820    -0.3810 C.2   1 <1>   0.6410 
  3 C       -0.8110     1.4800    -1.4810 C.3   1 <1>   0.0700 
  4 N        1.5800     2.4910    -0.0890 N.2   1 <1>  -0.6610 
  5 N        3.0570     0.6410    -0.1060 N.pl3 1 <1>  -0.5190 
  6 C       -0.5410     2.2900    -2.7480 C.3   1 <1>  -0.2400 
  7 C        2.5350     3.2160     0.5520 C.2   1 <1>   0.7670 
  8 C        4.0380     1.3630     0.5330 C.2   1 <1>   0.2090 
  9 C        3.2690    -0.7640    -0.5760 C.3   1 <1>   0.1290 
 10 O        2.2020     4.3300     0.9370 O.2   1 <1>  -0.5700 
 11 C        3.8190     2.6780     0.8040 C.2   1 <1>  -0.1240 
 12 N        5.2040     0.7460     0.9280 N.am  1 <1>  -0.5390 
 13 C        4.9300     3.5500     1.4060 C.3   1 <1>   0.2020 
 14 C        6.2750     1.3890     1.4470 C.2   1 <1>   0.5690 
 15 C        5.0480     4.9350     0.7590 C.ar  1 <1>  -0.1440 
 16 C        6.3250     2.8930     1.3410 C.3   1 <1>  -0.0990 
 17 O        7.1760     0.7780     1.9560 O.2   1 <1>  -0.5700 
 18 C        5.1020     5.1040    -0.6250 C.ar  1 <1>   0.0820 
 19 C        5.1050     6.0590     1.5720 C.ar  1 <1>  -0.1500 
 20 O        5.0430     4.0150    -1.4300 O.3   1 <1>  -0.3630 
 21 C        5.2210     6.3760    -1.1710 C.ar  1 <1>  -0.1500 
 22 C        5.2170     7.3250     1.0250 C.ar  1 <1>  -0.1500 
 23 C        4.1530     4.0420    -2.5250 C.3   1 <1>   0.0400 
 24 C        5.2770     7.4850    -0.3470 C.ar  1 <1>  -0.1500 
 25 H       -0.9010     2.1070    -0.6100 H     1 <1>   0.0800 
 26 H       -1.6930     0.8740    -1.5850 H     1 <1>   0.0800 
 27 H        0.3520     2.8780    -2.6310 H     1 <1>   0.0800 
 28 H       -1.3650     2.9550    -2.9370 H     1 <1>   0.0800 
 29 H       -0.4250     1.6330    -3.5920 H     1 <1>   0.0800 
 30 H        2.6270    -1.4300    -0.0250 H     1 <1>   0.0800 
 31 H        4.2870    -1.0810    -0.4510 H     1 <1>   0.0800 
 32 H        3.0360    -0.8380    -1.6240 H     1 <1>   0.0800 
 33 H        5.2610    -0.2690     0.9630 H     1 <1>   0.3700 
 34 H        4.6780     3.6760     2.4450 H     1 <1>   0.0800 
 35 H        6.9500     3.2900     2.1190 H     1 <1>   0.0800 
 36 H        6.7920     3.1200     0.4010 H     1 <1>   0.0800 
 37 H        5.0560     5.9600     2.6420 H     1 <1>   0.1500 
 38 H        5.2780     6.5080    -2.2350 H     1 <1>   0.1500 
 39 H        5.2560     8.1870     1.6680 H     1 <1>   0.1500 
 40 H        4.0260     3.0340    -2.8770 H     1 <1>   0.0800 
 41 H        4.5710     4.6520    -3.3040 H     1 <1>   0.0800 
 42 H        3.2070     4.4370    -2.1970 H     1 <1>   0.0800 
 43 H        5.3670     8.4690    -0.7710 H     1 <1>   0.1500 
@<TRIPOS>BOND
  1   1   2  1   
  2   1   3  1   
  3   2   4  2   
  4   2   5  1   
  5   3   6  1   
  6   3  25  1   
  7   3  26  1   
  8   4   7  1   
  9   5   8  1   
 10   5   9  1   
 11   6  27  1   
 12   6  28  1   
 13   6  29  1   
 14   7  10  2   
 15   7  11  1   
 16   8  11  2   
 17   8  12  1   
 18   9  30  1   
 19   9  31  1   
 20   9  32  1   
 21  11  13  1   
 22  12  14  am  
 23  12  33  1   
 24  13  15  1   
 25  13  16  1   
 26  13  34  1   
 27  14  16  1   
 28  14  17  2   
 29  15  18  ar  
 30  15  19  ar  
 31  16  35  1   
 32  16  36  1   
 33  18  20  1   
 34  18  21  ar  
 35  19  22  ar  
 36  19  37  1   
 37  20  23  1   
 38  21  24  ar  
 39  21  38  1   
 40  22  24  ar  
 41  22  39  1   
 42  23  40  1   
 43  23  41  1   
 44  23  42  1   
 45  24  43  1   
@<TRIPOS>SUBSTRUCTURE
  1 ****  11 GROUP 4 **** **** 0

# MOE 2024.06 (io_trps.svl 2023.06)
