@<TRIPOS>MOLECULE
2-(1,1-Dioxo-tetrahydro-1lambda*6*-thiophen-3-ylsulfanyl)-N-(2-oxo-2-phenyl-ethy
38 39 1 0 0 
SMALL
USER_CHARGES


@<TRIPOS>ATOM
  1 S        1.7900    -0.2400    -1.0720 S.o2  1 <1>   1.0900 
  2 O        2.7260    -1.1230    -1.7300 O.2   1 <1>  -0.6500 
  3 O        0.3700    -0.5020    -1.0700 O.2   1 <1>  -0.6500 
  4 C        2.3190     0.0270     0.6020 C.3   1 <1>  -0.0550 
  5 C        2.0510     1.4420    -1.6130 C.3   1 <1>  -0.0550 
  6 C        2.2670     1.5310     0.8460 C.3   1 <1>   0.1500 
  7 C        2.6710     2.2350    -0.4550 C.3   1 <1>  -0.1600 
  8 S        3.4600     1.9070     2.1650 S.3   1 <1>  -0.4600 
  9 C        3.0870     3.6190     2.6960 C.3   1 <1>   0.1310 
 10 C        3.4550     4.6550     1.6390 C.2   1 <1>   0.5690 
 11 O        2.5640     5.2880     1.1330 O.2   1 <1>  -0.5700 
 12 N        4.7340     4.8950     1.2560 N.am  1 <1>  -0.7300 
 13 C        6.0010     4.1800     1.5960 C.3   1 <1>   0.2010 
 14 C        6.7590     3.7730     0.3330 C.2   1 <1>   0.4230 
 15 O        7.5270     4.5750    -0.1340 O.2   1 <1>  -0.5700 
 16 C        6.4790     2.4990    -0.2920 C.ar  1 <1>   0.0860 
 17 C        6.2910     1.3190     0.4320 C.ar  1 <1>  -0.1500 
 18 C        6.3680     2.4180    -1.6810 C.ar  1 <1>  -0.1500 
 19 C        5.9680     0.1300    -0.1970 C.ar  1 <1>  -0.1500 
 20 C        6.0420     1.2330    -2.3160 C.ar  1 <1>  -0.1500 
 21 C        5.8320     0.0870    -1.5720 C.ar  1 <1>  -0.1500 
 22 H        3.3310    -0.3120     0.7060 H     1 <1>   0.0800 
 23 H        1.7000    -0.5010     1.3000 H     1 <1>   0.0800 
 24 H        1.1040     1.8790    -1.8720 H     1 <1>   0.0800 
 25 H        2.6880     1.4760    -2.4770 H     1 <1>   0.0800 
 26 H        1.2860     1.8370     1.1720 H     1 <1>   0.0800 
 27 H        2.3370     3.2560    -0.4800 H     1 <1>   0.0800 
 28 H        3.7390     2.2130    -0.5580 H     1 <1>   0.0800 
 29 H        3.6430     3.7980     3.5960 H     1 <1>   0.0800 
 30 H        2.0350     3.6630     2.9110 H     1 <1>   0.0800 
 31 H        4.8500     5.6470     0.5680 H     1 <1>   0.3700 
 32 H        5.8010     3.3250     2.2110 H     1 <1>   0.0800 
 33 H        6.6290     4.8470     2.1620 H     1 <1>   0.0800 
 34 H        6.3950     1.3180     1.5020 H     1 <1>   0.1500 
 35 H        6.5370     3.3050    -2.2690 H     1 <1>   0.1500 
 36 H        5.8210    -0.7670     0.3800 H     1 <1>   0.1500 
 37 H        5.9530     1.1990    -3.3890 H     1 <1>   0.1500 
 38 H        5.5670    -0.8370    -2.0610 H     1 <1>   0.1500 
@<TRIPOS>BOND
  1   1   2  2   
  2   1   3  2   
  3   1   4  1   
  4   1   5  1   
  5   4   6  1   
  6   4  22  1   
  7   4  23  1   
  8   5   7  1   
  9   5  24  1   
 10   5  25  1   
 11   6   7  1   
 12   6   8  1   
 13   6  26  1   
 14   7  27  1   
 15   7  28  1   
 16   8   9  1   
 17   9  10  1   
 18   9  29  1   
 19   9  30  1   
 20  10  11  2   
 21  10  12  am  
 22  12  13  1   
 23  12  31  1   
 24  13  14  1   
 25  13  32  1   
 26  13  33  1   
 27  14  15  2   
 28  14  16  1   
 29  16  17  ar  
 30  16  18  ar  
 31  17  19  ar  
 32  17  34  1   
 33  18  20  ar  
 34  18  35  1   
 35  19  21  ar  
 36  19  36  1   
 37  20  21  ar  
 38  20  37  1   
 39  21  38  1   
@<TRIPOS>SUBSTRUCTURE
  1 ****   7 GROUP 4 **** **** 0

# MOE 2024.06 (io_trps.svl 2023.06)
