@<TRIPOS>MOLECULE
N-[2-(Adamantan-1-yloxy)-propyl]-4-(2-oxo-pyrrolidin-1-yl)-benzenesulfonamide
62 66 1 0 0 
SMALL
USER_CHARGES


@<TRIPOS>ATOM
  1 S        0.1330    -0.8360     2.3960 S.o2  1 <1>   1.4470 
  2 O       -0.1780     0.0270     3.5120 O.2   1 <1>  -0.6500 
  3 O        1.0440    -1.9470     2.5570 O.2   1 <1>  -0.6500 
  4 N        0.8200     0.2030     1.2750 N.am  1 <1>  -0.9140 
  5 C       -1.3800    -1.3860     1.5640 C.ar  1 <1>  -0.0090 
  6 C        2.2360     0.4570     1.5460 C.3   1 <1>   0.1960 
  7 C       -1.3190    -2.1960     0.4360 C.ar  1 <1>  -0.1500 
  8 C       -2.6390    -1.0040     2.0130 C.ar  1 <1>  -0.1500 
  9 C        2.8290     1.4640     0.5460 C.3   1 <1>   0.2000 
 10 C       -2.4660    -2.6090    -0.2180 C.ar  1 <1>  -0.1500 
 11 C       -3.7880    -1.4160     1.3620 C.ar  1 <1>  -0.1500 
 12 O        4.1690     1.6620     0.8830 O.3   1 <1>  -0.5600 
 13 C        2.1600     2.8390     0.6090 C.3   1 <1>  -0.2400 
 14 C       -3.7250    -2.2270     0.2340 C.ar  1 <1>   0.1170 
 15 C        5.1790     1.2200     0.0190 C.3   1 <1>   0.2800 
 16 N       -4.8940    -2.6530    -0.4230 N.am  1 <1>  -0.4770 
 17 C        6.5060     1.5370     0.7320 C.3   1 <1>  -0.1600 
 18 C        5.1010    -0.3040    -0.2250 C.3   1 <1>  -0.1600 
 19 C        5.1420     1.9860    -1.3200 C.3   1 <1>  -0.1600 
 20 C       -6.0600    -1.9620    -0.5990 C.2   1 <1>   0.5690 
 21 C       -5.0020    -4.0130    -0.9890 C.3   1 <1>   0.1400 
 22 C        7.7010     1.1000    -0.1370 C.3   1 <1>  -0.0800 
 23 C        6.2820    -0.7460    -1.1130 C.3   1 <1>  -0.0800 
 24 C        6.3220     1.5390    -2.2050 C.3   1 <1>  -0.0800 
 25 O       -6.2870    -0.8250    -0.2620 O.2   1 <1>  -0.5700 
 26 C       -7.0960    -2.8010    -1.2970 C.3   1 <1>  -0.0990 
 27 C       -6.4960    -4.2110    -1.2680 C.3   1 <1>  -0.1600 
 28 C        7.6050    -0.4150    -0.3970 C.3   1 <1>  -0.1600 
 29 C        7.6450     1.8500    -1.4810 C.3   1 <1>  -0.1600 
 30 C        6.2260     0.0190    -2.4510 C.3   1 <1>  -0.1600 
 31 H        0.3340     1.0810     1.4450 H     1 <1>   0.4200 
 32 H        2.7830    -0.4670     1.4690 H     1 <1>   0.0800 
 33 H        2.3520     0.8410     2.5460 H     1 <1>   0.0800 
 34 H       -0.3550    -2.5030     0.0660 H     1 <1>   0.1500 
 35 H       -2.7250    -0.3750     2.8830 H     1 <1>   0.1500 
 36 H        2.7490     1.0660    -0.4490 H     1 <1>   0.0800 
 37 H       -2.3760    -3.2270    -1.0920 H     1 <1>   0.1500 
 38 H       -4.7480    -1.1030     1.7340 H     1 <1>   0.1500 
 39 H        2.2050     3.2300     1.6100 H     1 <1>   0.0800 
 40 H        1.1330     2.7710     0.3050 H     1 <1>   0.0800 
 41 H        2.6620     3.5180    -0.0570 H     1 <1>   0.0800 
 42 H        6.5670     2.5930     0.9240 H     1 <1>   0.0800 
 43 H        6.5390     1.0230     1.6760 H     1 <1>   0.0800 
 44 H        4.1870    -0.5680    -0.7220 H     1 <1>   0.0800 
 45 H        5.1430    -0.8250     0.7150 H     1 <1>   0.0800 
 46 H        5.2090     3.0430    -1.1330 H     1 <1>   0.0800 
 47 H        4.2280     1.7920    -1.8490 H     1 <1>   0.0800 
 48 H       -4.6300    -4.7450    -0.2920 H     1 <1>   0.0800 
 49 H       -4.4390    -4.0600    -1.9060 H     1 <1>   0.0800 
 50 H        8.6230     1.3260     0.3700 H     1 <1>   0.0800 
 51 H        6.2230    -1.8050    -1.2950 H     1 <1>   0.0800 
 52 H        6.2920     2.0630    -3.1460 H     1 <1>   0.0800 
 53 H       -7.2090    -2.4450    -2.3050 H     1 <1>   0.0800 
 54 H       -8.0380    -2.7520    -0.7810 H     1 <1>   0.0800 
 55 H       -6.9300    -4.7720    -0.4580 H     1 <1>   0.0800 
 56 H       -6.6630    -4.7440    -2.1870 H     1 <1>   0.0800 
 57 H        7.6590    -0.9490     0.5360 H     1 <1>   0.0800 
 58 H        8.4360    -0.7340    -1.0030 H     1 <1>   0.0800 
 59 H        8.4760     1.5540    -2.0970 H     1 <1>   0.0800 
 60 H        7.7280     2.9090    -1.3100 H     1 <1>   0.0800 
 61 H        7.0380    -0.2970    -3.0820 H     1 <1>   0.0800 
 62 H        5.3080    -0.2100    -2.9640 H     1 <1>   0.0800 
@<TRIPOS>BOND
  1   1   2  2   
  2   1   3  2   
  3   1   4  am  
  4   1   5  1   
  5   4   6  1   
  6   4  31  1   
  7   5   7  ar  
  8   5   8  ar  
  9   6   9  1   
 10   6  32  1   
 11   6  33  1   
 12   7  10  ar  
 13   7  34  1   
 14   8  11  ar  
 15   8  35  1   
 16   9  12  1   
 17   9  13  1   
 18   9  36  1   
 19  10  14  ar  
 20  10  37  1   
 21  11  14  ar  
 22  11  38  1   
 23  12  15  1   
 24  13  39  1   
 25  13  40  1   
 26  13  41  1   
 27  14  16  1   
 28  15  17  1   
 29  15  18  1   
 30  15  19  1   
 31  16  20  am  
 32  16  21  1   
 33  17  22  1   
 34  17  42  1   
 35  17  43  1   
 36  18  23  1   
 37  18  44  1   
 38  18  45  1   
 39  19  24  1   
 40  19  46  1   
 41  19  47  1   
 42  20  25  2   
 43  20  26  1   
 44  21  27  1   
 45  21  48  1   
 46  21  49  1   
 47  22  28  1   
 48  22  29  1   
 49  22  50  1   
 50  23  28  1   
 51  23  30  1   
 52  23  51  1   
 53  24  29  1   
 54  24  30  1   
 55  24  52  1   
 56  26  27  1   
 57  26  53  1   
 58  26  54  1   
 59  27  55  1   
 60  27  56  1   
 61  28  57  1   
 62  28  58  1   
 63  29  59  1   
 64  29  60  1   
 65  30  61  1   
 66  30  62  1   
@<TRIPOS>SUBSTRUCTURE
  1 ****   4 GROUP 4 **** **** 0

# MOE 2024.06 (io_trps.svl 2023.06)
