@<TRIPOS>MOLECULE
5-Ethyl-7-methyl-2-phenyl-1,3-diaza-tricyclo[3.3.1.1*3,7*]decan-6-one
43 46 1 0 0 
SMALL
USER_CHARGES


@<TRIPOS>ATOM
  1 O        0.0270    -0.0070     0.0620 O.2   1 <1>  -0.5700 
  2 C        0.9140    -0.7550     0.3440 C.2   1 <1>   0.4480 
  3 C        1.0850    -2.1410    -0.2830 C.3   1 <1>   0.0610 
  4 C        1.9610    -0.4170     1.4060 C.3   1 <1>   0.0610 
  5 C        0.9970    -3.1540     0.8640 C.3   1 <1>   0.3430 
  6 C        2.5190    -2.2190    -0.8250 C.3   1 <1>   0.1100 
  7 C        0.0770    -2.4700    -1.4150 C.3   1 <1>  -0.1600 
  8 C        1.8130    -1.4810     2.4990 C.3   1 <1>   0.3430 
  9 C        3.3510    -0.5970     0.7760 C.3   1 <1>   0.1100 
 10 C        1.8120     1.0010     1.9950 C.3   1 <1>  -0.2400 
 11 N        2.0280    -2.8470     1.9170 N.4   1 <1>  -0.9590 
 12 N        3.4790    -1.9790     0.2790 N.3   1 <1>  -0.8100 
 13 C       -1.3750    -2.6810    -0.9530 C.3   1 <1>  -0.2400 
 14 C        3.4010    -2.9670     1.3680 C.3   1 <1>   0.8360 
 15 C        3.7180    -4.4020     0.9180 C.ar  1 <1>  -0.1440 
 16 C        3.1420    -5.5150     1.5290 C.ar  1 <1>  -0.1500 
 17 C        4.6320    -4.6200    -0.1100 C.ar  1 <1>  -0.1500 
 18 C        3.4490    -6.7960     1.1050 C.ar  1 <1>  -0.1500 
 19 C        4.9390    -5.9000    -0.5340 C.ar  1 <1>  -0.1500 
 20 C        4.3450    -6.9900     0.0710 C.ar  1 <1>  -0.1500 
 21 H        1.1550    -4.1460     0.4700 H     1 <1>   0.0800 
 22 H        0.0100    -3.1160     1.2960 H     1 <1>   0.0800 
 23 H        2.6980    -3.1850    -1.2690 H     1 <1>   0.0800 
 24 H        2.6630    -1.4800    -1.5970 H     1 <1>   0.0800 
 25 H        0.3920    -3.3620    -1.9300 H     1 <1>   0.0800 
 26 H        0.0920    -1.6680    -2.1350 H     1 <1>   0.0800 
 27 H        0.8270    -1.4140     2.9300 H     1 <1>   0.0800 
 28 H        2.5350    -1.2950     3.2780 H     1 <1>   0.0800 
 29 H        4.1260    -0.3960     1.4980 H     1 <1>   0.0800 
 30 H        3.4790     0.0960    -0.0420 H     1 <1>   0.0800 
 31 H        0.8400     1.1240     2.4430 H     1 <1>   0.0800 
 32 H        1.9070     1.7380     1.2150 H     1 <1>   0.0800 
 33 H        2.5630     1.1970     2.7400 H     1 <1>   0.0800 
 34 H        1.9710    -3.5510     2.6570 H     1 <1>   0.4500 
 35 H       -1.4740    -3.5480    -0.3250 H     1 <1>   0.0800 
 36 H       -2.0040    -2.8280    -1.8140 H     1 <1>   0.0800 
 37 H       -1.7470    -1.8190    -0.4260 H     1 <1>   0.0800 
 38 H        4.1200    -2.6960     2.1260 H     1 <1>   0.0800 
 39 H        2.4530    -5.4260     2.3480 H     1 <1>   0.1500 
 40 H        5.1220    -3.7910    -0.5960 H     1 <1>   0.1500 
 41 H        2.9960    -7.6510     1.5800 H     1 <1>   0.1500 
 42 H        5.6450    -6.0490    -1.3340 H     1 <1>   0.1500 
 43 H        4.5840    -7.9870    -0.2600 H     1 <1>   0.1500 
@<TRIPOS>BOND
  1   1   2  2   
  2   2   3  1   
  3   2   4  1   
  4   3   5  1   
  5   3   6  1   
  6   3   7  1   
  7   4   8  1   
  8   4   9  1   
  9   4  10  1   
 10   5  11  1   
 11   5  21  1   
 12   5  22  1   
 13   6  12  1   
 14   6  23  1   
 15   6  24  1   
 16   7  13  1   
 17   7  25  1   
 18   7  26  1   
 19   8  11  1   
 20   8  27  1   
 21   8  28  1   
 22   9  12  1   
 23   9  29  1   
 24   9  30  1   
 25  10  31  1   
 26  10  32  1   
 27  10  33  1   
 28  11  14  1   
 29  11  34  1   
 30  12  14  1   
 31  13  35  1   
 32  13  36  1   
 33  13  37  1   
 34  14  15  1   
 35  14  38  1   
 36  15  16  ar  
 37  15  17  ar  
 38  16  18  ar  
 39  16  39  1   
 40  17  19  ar  
 41  17  40  1   
 42  18  20  ar  
 43  18  41  1   
 44  19  20  ar  
 45  19  42  1   
 46  20  43  1   
@<TRIPOS>SUBSTRUCTURE
  1 ****  14 GROUP 4 **** **** 0

# MOE 2024.06 (io_trps.svl 2023.06)
