@<TRIPOS>MOLECULE
7-[3-(3,4-Dimethyl-phenoxy)-2-hydroxy-propyl]-3-methyl-8-morpholin-4-yl-3,7-dihy
59 62 1 0 0 
SMALL
USER_CHARGES


@<TRIPOS>ATOM
  1 O        1.0710     2.3340    -0.1010 O.2   1 <1>  -0.5740 
  2 C        2.2770     2.3120    -0.1740 C.2   1 <1>   0.6870 
  3 N        2.9950     1.1260    -0.2200 N.am  1 <1>  -0.4410 
  4 N        2.9470     3.5000    -0.2150 N.am  1 <1>  -0.4940 
  5 C        4.3780     1.2140    -0.2880 C.2   1 <1>   0.4210 
  6 C        2.3010    -0.1950    -0.1770 C.3   1 <1>   0.0530 
  7 C        4.3060     3.6030    -0.2930 C.2   1 <1>   0.7000 
  8 N        5.2720     0.1930    -0.3400 N.pl3 1 <1>  -0.7030 
  9 C        5.0590     2.3800    -0.3150 C.2   1 <1>   0.2720 
 10 O        4.8060     4.7130    -0.3510 O.2   1 <1>  -0.5740 
 11 C        6.5080     0.6980    -0.3820 C.cat 1 <1>   1.0690 
 12 N        6.4280     2.0400    -0.3720 N.pl3 1 <1>  -0.7670 
 13 N        7.6080    -0.0950    -0.4380 N.pl3 1 <1>  -0.5960 
 14 C        7.4790     3.1040    -0.4280 C.3   1 <1>   0.3490 
 15 C        9.0070     0.3120    -0.0710 C.3   1 <1>   0.1610 
 16 C        7.5600    -1.5200    -0.9210 C.3   1 <1>   0.1610 
 17 C        7.8350     3.6490     0.9780 C.3   1 <1>   0.1940 
 18 C        9.6950    -0.7430     0.8120 C.3   1 <1>   0.1140 
 19 C        8.3080    -2.4640     0.0330 C.3   1 <1>   0.1140 
 20 O        6.7000     4.1040     1.6480 O.3   1 <1>  -0.6830 
 21 C        8.8750     4.7660     0.9070 C.3   1 <1>   0.1140 
 22 O        9.6080    -2.0020     0.2190 O.3   1 <1>  -0.5640 
 23 O        9.9760     4.2700     0.1750 O.3   1 <1>  -0.3680 
 24 C       11.0740     5.0350    -0.0490 C.ar  1 <1>   0.0760 
 25 C       11.2200     6.3370     0.4200 C.ar  1 <1>  -0.1560 
 26 C       12.0930     4.4630    -0.7880 C.ar  1 <1>  -0.1560 
 27 C       12.3730     7.0590     0.1510 C.ar  1 <1>  -0.1500 
 28 C       13.2440     5.1780    -1.0590 C.ar  1 <1>  -0.1560 
 29 C       13.3940     6.4760    -0.5950 C.ar  1 <1>  -0.1500 
 30 C       12.4970     8.4810     0.6810 C.3   1 <1>  -0.1030 
 31 C       14.6770     7.2300    -0.9140 C.3   1 <1>  -0.1030 
 32 H        2.3880     4.3500    -0.1860 H     1 <1>   0.3650 
 33 H        1.2330    -0.0700    -0.2360 H     1 <1>   0.0730 
 34 H        2.5320    -0.6990     0.7460 H     1 <1>   0.0730 
 35 H        2.6140    -0.8030    -1.0080 H     1 <1>   0.0730 
 36 H        5.0510    -0.7950    -0.2950 H     1 <1>   0.4450 
 37 H        7.1370     3.9200    -1.0430 H     1 <1>   0.0730 
 38 H        8.3600     2.7210    -0.9110 H     1 <1>   0.0730 
 39 H        9.0150     1.2300     0.4780 H     1 <1>   0.0730 
 40 H        9.5890     0.4490    -0.9670 H     1 <1>   0.0730 
 41 H        8.0320    -1.5760    -1.8870 H     1 <1>   0.0730 
 42 H        6.5510    -1.8700    -1.0370 H     1 <1>   0.0730 
 43 H        8.2410     2.8590     1.5830 H     1 <1>   0.0730 
 44 H        9.2440    -0.7880     1.7880 H     1 <1>   0.0730 
 45 H       10.7390    -0.5080     0.9280 H     1 <1>   0.0730 
 46 H        8.3720    -3.4510    -0.3910 H     1 <1>   0.0730 
 47 H        7.8200    -2.5290     0.9900 H     1 <1>   0.0730 
 48 H        6.2680     4.8440     1.1610 H     1 <1>   0.3950 
 49 H        9.2150     5.0300     1.8930 H     1 <1>   0.0730 
 50 H        8.4890     5.6270     0.3900 H     1 <1>   0.0730 
 51 H       10.4470     6.8030     0.9970 H     1 <1>   0.1440 
 52 H       11.9890     3.4580    -1.1520 H     1 <1>   0.1440 
 53 H       14.0260     4.7170    -1.6360 H     1 <1>   0.1440 
 54 H       11.6230     8.7650     1.2370 H     1 <1>   0.0730 
 55 H       12.6150     9.1690    -0.1360 H     1 <1>   0.0730 
 56 H       13.3500     8.5580     1.3310 H     1 <1>   0.0730 
 57 H       15.1800     7.5030    -0.0040 H     1 <1>   0.0730 
 58 H       14.4510     8.1210    -1.4720 H     1 <1>   0.0730 
 59 H       15.3450     6.6260    -1.5000 H     1 <1>   0.0730 
@<TRIPOS>BOND
  1   1   2  2   
  2   2   3  am  
  3   2   4  am  
  4   3   5  1   
  5   3   6  1   
  6   4   7  am  
  7   4  32  1   
  8   5   8  1   
  9   5   9  2   
 10   6  33  1   
 11   6  34  1   
 12   6  35  1   
 13   7   9  1   
 14   7  10  2   
 15   8  11  ar  
 16   8  36  1   
 17   9  12  1   
 18  11  12  ar  
 19  11  13  ar  
 20  12  14  1   
 21  13  15  1   
 22  13  16  1   
 23  14  17  1   
 24  14  37  1   
 25  14  38  1   
 26  15  18  1   
 27  15  39  1   
 28  15  40  1   
 29  16  19  1   
 30  16  41  1   
 31  16  42  1   
 32  17  20  1   
 33  17  21  1   
 34  17  43  1   
 35  18  22  1   
 36  18  44  1   
 37  18  45  1   
 38  19  22  1   
 39  19  46  1   
 40  19  47  1   
 41  20  48  1   
 42  21  23  1   
 43  21  49  1   
 44  21  50  1   
 45  23  24  1   
 46  24  25  ar  
 47  24  26  ar  
 48  25  27  ar  
 49  25  51  1   
 50  26  28  ar  
 51  26  52  1   
 52  27  29  ar  
 53  27  30  1   
 54  28  29  ar  
 55  28  53  1   
 56  29  31  1   
 57  30  54  1   
 58  30  55  1   
 59  30  56  1   
 60  31  57  1   
 61  31  58  1   
 62  31  59  1   
@<TRIPOS>SUBSTRUCTURE
  1 ****  14 GROUP 4 **** **** 0

# MOE 2024.06 (io_trps.svl 2023.06)
