@<TRIPOS>MOLECULE
6-Adamantan-1-yl-2-oxo-2H-chromene-3-carboxylic acid (pyridin-3-ylmethyl)-amide
57 62 1 0 0 
SMALL
USER_CHARGES


@<TRIPOS>ATOM
  1 O       -0.8280    -0.0250     1.2570 O.2   1 <1>  -0.5700 
  2 C       -1.7680     0.7190     1.0480 C.2   1 <1>   0.7060 
  3 O       -2.9590     0.1300     0.8860 O.3   1 <1>  -0.2330 
  4 C       -1.6840     2.1580     0.9670 C.2   1 <1>   0.0290 
  5 C       -4.1000     0.8070     0.6480 C.ar  1 <1>   0.0830 
  6 C       -0.4090     2.8250     1.1360 C.2   1 <1>   0.6160 
  7 C       -2.8300     2.8570     0.7250 C.2   1 <1>  -0.1780 
  8 C       -4.0790     2.1970     0.5580 C.ar  1 <1>   0.0280 
  9 C       -5.2850     0.1110     0.4930 C.ar  1 <1>  -0.1500 
 10 O       -0.3410     4.0320     1.0060 O.2   1 <1>  -0.5700 
 11 N        0.7460     2.1650     1.4300 N.am  1 <1>  -0.7300 
 12 C       -5.2780     2.8630     0.3090 C.ar  1 <1>  -0.1500 
 13 C       -6.4610     0.7930     0.2480 C.ar  1 <1>  -0.1500 
 14 C        2.0950     2.7580     1.4470 C.3   1 <1>   0.2840 
 15 C       -6.4800     2.1870     0.1510 C.ar  1 <1>  -0.1430 
 16 C        2.7910     2.4010     0.1500 C.ar  1 <1>  -0.1430 
 17 C       -7.7740     2.9900    -0.1220 C.3   1 <1>   0.1430 
 18 C        2.5070     3.1180    -1.0030 C.ar  1 <1>   0.1600 
 19 C        3.7040     1.3660     0.0850 C.ar  1 <1>  -0.1500 
 20 C       -8.0400     3.9710     1.0450 C.3   1 <1>  -0.1600 
 21 C       -9.0300     2.0930    -0.2750 C.3   1 <1>  -0.1600 
 22 C       -7.6210     3.8040    -1.4300 C.3   1 <1>  -0.1600 
 23 N        3.0550     2.8960    -2.1880 N.ar  1 <1>  -0.6200 
 24 C        4.2810     1.1200    -1.1430 C.ar  1 <1>  -0.1500 
 25 C       -9.2950     4.8250     0.7800 C.3   1 <1>  -0.0800 
 26 C      -10.2940     2.9300    -0.5450 C.3   1 <1>  -0.0800 
 27 C       -8.8740     4.6580    -1.7040 C.3   1 <1>  -0.0800 
 28 C        3.9270     1.9020    -2.2290 C.ar  1 <1>   0.1600 
 29 C      -10.5150     3.9010     0.6280 C.3   1 <1>  -0.1600 
 30 C       -9.0980     5.6220    -0.5240 C.3   1 <1>  -0.1600 
 31 C      -10.0970     3.7340    -1.8420 C.3   1 <1>  -0.1600 
 32 H       -2.8270     3.9320     0.6520 H     1 <1>   0.1500 
 33 H       -5.2840    -0.9620     0.5660 H     1 <1>   0.1500 
 34 H        0.7180     1.1350     1.4290 H     1 <1>   0.3700 
 35 H       -5.2480     3.9350     0.2420 H     1 <1>   0.1500 
 36 H       -7.3560     0.2110     0.1360 H     1 <1>   0.1500 
 37 H        2.6440     2.3710     2.2880 H     1 <1>   0.0800 
 38 H        2.0360     3.8280     1.5510 H     1 <1>   0.0800 
 39 H        1.7870     3.9180    -0.9460 H     1 <1>   0.1500 
 40 H        3.9570     0.7740     0.9470 H     1 <1>   0.1500 
 41 H       -7.2010     4.6270     1.1830 H     1 <1>   0.0800 
 42 H       -8.1660     3.4150     1.9570 H     1 <1>   0.0800 
 43 H       -9.1800     1.5210     0.6240 H     1 <1>   0.0800 
 44 H       -8.8890     1.4050    -1.0900 H     1 <1>   0.0800 
 45 H       -7.4540     3.1310    -2.2530 H     1 <1>   0.0800 
 46 H       -6.7690     4.4550    -1.3700 H     1 <1>   0.0800 
 47 H        4.9990     0.3290    -1.2610 H     1 <1>   0.1500 
 48 H       -9.4530     5.5040     1.6000 H     1 <1>   0.0800 
 49 H      -11.1470     2.2810    -0.6460 H     1 <1>   0.0800 
 50 H       -8.7400     5.2200    -2.6130 H     1 <1>   0.0800 
 51 H        4.3860     1.7000    -3.1820 H     1 <1>   0.1500 
 52 H      -10.6680     3.3460     1.5380 H     1 <1>   0.0800 
 53 H      -11.3990     4.4890     0.4530 H     1 <1>   0.0800 
 54 H       -8.2530     6.2810    -0.4250 H     1 <1>   0.0800 
 55 H       -9.9650     6.2310    -0.7120 H     1 <1>   0.0800 
 56 H      -10.9760     4.3210    -2.0440 H     1 <1>   0.0800 
 57 H       -9.9560     3.0620    -2.6710 H     1 <1>   0.0800 
@<TRIPOS>BOND
  1   1   2  2   
  2   2   3  1   
  3   2   4  1   
  4   3   5  1   
  5   4   6  1   
  6   4   7  2   
  7   5   8  ar  
  8   5   9  ar  
  9   6  10  2   
 10   6  11  am  
 11   7   8  1   
 12   7  32  1   
 13   8  12  ar  
 14   9  13  ar  
 15   9  33  1   
 16  11  14  1   
 17  11  34  1   
 18  12  15  ar  
 19  12  35  1   
 20  13  15  ar  
 21  13  36  1   
 22  14  16  1   
 23  14  37  1   
 24  14  38  1   
 25  15  17  1   
 26  16  18  ar  
 27  16  19  ar  
 28  17  20  1   
 29  17  21  1   
 30  17  22  1   
 31  18  23  ar  
 32  18  39  1   
 33  19  24  ar  
 34  19  40  1   
 35  20  25  1   
 36  20  41  1   
 37  20  42  1   
 38  21  26  1   
 39  21  43  1   
 40  21  44  1   
 41  22  27  1   
 42  22  45  1   
 43  22  46  1   
 44  23  28  ar  
 45  24  28  ar  
 46  24  47  1   
 47  25  29  1   
 48  25  30  1   
 49  25  48  1   
 50  26  29  1   
 51  26  31  1   
 52  26  49  1   
 53  27  30  1   
 54  27  31  1   
 55  27  50  1   
 56  28  51  1   
 57  29  52  1   
 58  29  53  1   
 59  30  54  1   
 60  30  55  1   
 61  31  56  1   
 62  31  57  1   
@<TRIPOS>SUBSTRUCTURE
  1 ****   8 GROUP 4 **** **** 0

# MOE 2024.06 (io_trps.svl 2023.06)
