@<TRIPOS>MOLECULE
1,3-Dimethyl-2,6-dioxo-1,2,3,6-tetrahydro-pyrimidine-4-carboxylic acid [2-(2-pro
48 49 1 0 0 
SMALL
USER_CHARGES


@<TRIPOS>ATOM
  1 O        1.2660     1.3770    -0.2960 O.2   1 <1>  -0.5700 
  2 C        2.3780     1.5590     0.1660 C.2   1 <1>   0.6900 
  3 N        3.2470     0.4900     0.3590 N.am  1 <1>  -0.4690 
  4 N        2.7810     2.8400     0.4950 N.am  1 <1>  -0.4200 
  5 C        4.5370     0.6820     0.8890 C.2   1 <1>   0.1230 
  6 C        2.7920    -0.8960     0.0230 C.3   1 <1>   0.0600 
  7 C        4.0490     3.0610     0.9890 C.2   1 <1>   0.6160 
  8 C        1.8500     3.9870     0.2830 C.3   1 <1>   0.0600 
  9 C        5.4620    -0.4230     1.0910 C.2   1 <1>   0.6160 
 10 C        4.9010     1.9530     1.1920 C.2   1 <1>  -0.1360 
 11 O        4.4340     4.1890     1.2390 O.2   1 <1>  -0.5700 
 12 O        5.1620    -1.4050     1.7420 O.2   1 <1>  -0.5700 
 13 N        6.7110    -0.3570     0.5480 N.am  1 <1>  -0.7300 
 14 C        7.7920    -1.3600     0.6870 C.3   1 <1>   0.1400 
 15 C        9.1540    -0.6590     0.6690 C.3   1 <1>   0.1200 
 16 O        9.1710     0.2880    -0.3800 O.3   1 <1>  -0.3630 
 17 C       10.2140     1.1420    -0.3990 C.ar  1 <1>   0.0830 
 18 C       10.0810     2.4370     0.0990 C.ar  1 <1>  -0.1430 
 19 C       11.4150     0.7150    -0.9460 C.ar  1 <1>  -0.1500 
 20 C       11.1760     3.2860     0.0450 C.ar  1 <1>  -0.1500 
 21 C        8.7790     2.9480     0.7100 C.3   1 <1>  -0.0170 
 22 C       12.4980     1.5730    -0.9920 C.ar  1 <1>  -0.1500 
 23 C       12.3780     2.8590    -0.4950 C.ar  1 <1>  -0.1500 
 24 C        7.9450     3.7760    -0.2800 C.3   1 <1>  -0.1600 
 25 C        7.4310     2.9560    -1.4690 C.3   1 <1>  -0.2400 
 26 H        1.9010    -0.8830    -0.5810 H     1 <1>   0.0800 
 27 H        2.5860    -1.4350     0.9310 H     1 <1>   0.0800 
 28 H        3.5590    -1.4140    -0.5260 H     1 <1>   0.0800 
 29 H        1.9210     4.3200    -0.7370 H     1 <1>   0.0800 
 30 H        2.0950     4.8030     0.9390 H     1 <1>   0.0800 
 31 H        0.8360     3.6850     0.4840 H     1 <1>   0.0800 
 32 H        5.8630     2.1790     1.6090 H     1 <1>   0.1500 
 33 H        6.9650     0.4150    -0.0770 H     1 <1>   0.3700 
 34 H        7.7370    -2.0540    -0.1340 H     1 <1>   0.0800 
 35 H        7.6720    -1.9130     1.6030 H     1 <1>   0.0800 
 36 H        9.3160    -0.1410     1.5980 H     1 <1>   0.0800 
 37 H        9.9490    -1.3660     0.5120 H     1 <1>   0.0800 
 38 H       11.4950    -0.2820    -1.3380 H     1 <1>   0.1500 
 39 H       11.0960     4.2900     0.4230 H     1 <1>   0.1500 
 40 H        9.0180     3.5670     1.5580 H     1 <1>   0.0800 
 41 H        8.1940     2.1280     1.0820 H     1 <1>   0.0800 
 42 H       13.4320     1.2440    -1.4150 H     1 <1>   0.1500 
 43 H       13.2180     3.5300    -0.5310 H     1 <1>   0.1500 
 44 H        7.1040     4.2010     0.2410 H     1 <1>   0.0800 
 45 H        8.5430     4.5920    -0.6470 H     1 <1>   0.0800 
 46 H        6.8190     2.1400    -1.1360 H     1 <1>   0.0800 
 47 H        8.2550     2.5620    -2.0390 H     1 <1>   0.0800 
 48 H        6.8420     3.5820    -2.1170 H     1 <1>   0.0800 
@<TRIPOS>BOND
  1   1   2  2   
  2   2   3  am  
  3   2   4  am  
  4   3   5  1   
  5   3   6  1   
  6   4   7  am  
  7   4   8  1   
  8   5   9  1   
  9   5  10  2   
 10   6  26  1   
 11   6  27  1   
 12   6  28  1   
 13   7  10  1   
 14   7  11  2   
 15   8  29  1   
 16   8  30  1   
 17   8  31  1   
 18   9  12  2   
 19   9  13  am  
 20  10  32  1   
 21  13  14  1   
 22  13  33  1   
 23  14  15  1   
 24  14  34  1   
 25  14  35  1   
 26  15  16  1   
 27  15  36  1   
 28  15  37  1   
 29  16  17  1   
 30  17  18  ar  
 31  17  19  ar  
 32  18  20  ar  
 33  18  21  1   
 34  19  22  ar  
 35  19  38  1   
 36  20  23  ar  
 37  20  39  1   
 38  21  24  1   
 39  21  40  1   
 40  21  41  1   
 41  22  23  ar  
 42  22  42  1   
 43  23  43  1   
 44  24  25  1   
 45  24  44  1   
 46  24  45  1   
 47  25  46  1   
 48  25  47  1   
 49  25  48  1   
@<TRIPOS>SUBSTRUCTURE
  1 ****  13 GROUP 4 **** **** 0

# MOE 2024.06 (io_trps.svl 2023.06)
