@<TRIPOS>MOLECULE
8-(2-Methoxy-5-methyl-phenyl)-1,3,6-trimethyl-5,6,7,8-tetrahydro-1H-1,3,4b,8,9-p
51 54 1 0 0 
SMALL
USER_CHARGES


@<TRIPOS>ATOM
  1 O        0.8960     1.7600     1.9810 O.2   1 <1>  -0.5740 
  2 C        1.9590     1.8330     1.3980 C.2   1 <1>   0.6860 
  3 N        2.3610     3.0390     0.8300 N.am  1 <1>  -0.4250 
  4 N        2.7740     0.7120     1.3060 N.am  1 <1>  -0.4410 
  5 C        3.6020     3.1680     0.2210 C.2   1 <1>   0.7000 
  6 C        1.4500     4.2230     0.9240 C.3   1 <1>   0.0520 
  7 C        4.0030     0.8520     0.6910 C.2   1 <1>   0.4210 
  8 C        2.3520    -0.5980     1.8850 C.3   1 <1>   0.0520 
  9 O        3.9690     4.2360    -0.2410 O.2   1 <1>  -0.5740 
 10 C        4.4420     2.0120     0.1580 C.2   1 <1>   0.2710 
 11 N        4.9670    -0.0930     0.5270 N.pl3 1 <1>  -0.7040 
 12 N        5.7240     1.7480    -0.3450 N.pl3 1 <1>  -0.7670 
 13 C        6.0010     0.4740    -0.0890 C.cat 1 <1>   1.0690 
 14 C        6.6480     2.6980    -0.9990 C.3   1 <1>   0.3480 
 15 N        7.1650    -0.1100    -0.4270 N.pl3 1 <1>  -0.5800 
 16 C        7.7140     1.9130    -1.7850 C.3   1 <1>  -0.0880 
 17 C        7.4490    -1.4680    -0.1750 C.ar  1 <1>   0.3050 
 18 C        8.2690     0.7380    -0.9590 C.3   1 <1>   0.1610 
 19 C        8.8530     2.8390    -2.2390 C.3   1 <1>  -0.2470 
 20 C        7.4280    -2.0030     1.1210 C.ar  1 <1>   0.0750 
 21 C        7.7470    -2.3040    -1.2440 C.ar  1 <1>  -0.1570 
 22 O        7.1180    -1.1700     2.1580 O.3   1 <1>  -0.3680 
 23 C        7.7080    -3.3510     1.3160 C.ar  1 <1>  -0.1570 
 24 C        8.0220    -3.6460    -1.0480 C.ar  1 <1>  -0.1510 
 25 C        7.4510    -1.5170     3.4890 C.3   1 <1>   0.0320 
 26 C        8.0030    -4.1620     0.2350 C.ar  1 <1>  -0.1570 
 27 C        8.3490    -4.5530    -2.2210 C.3   1 <1>  -0.1040 
 28 H        0.4250     3.9120     0.8160 H     1 <1>   0.0720 
 29 H        1.6670     4.9390     0.1500 H     1 <1>   0.0720 
 30 H        1.5710     4.6950     1.8830 H     1 <1>   0.0720 
 31 H        1.2820    -0.6350     1.9980 H     1 <1>   0.0720 
 32 H        2.8050    -0.7290     2.8520 H     1 <1>   0.0720 
 33 H        2.6470    -1.4040     1.2370 H     1 <1>   0.0720 
 34 H        5.0130    -1.0340     0.9110 H     1 <1>   0.4450 
 35 H        7.1160     3.3060    -0.2430 H     1 <1>   0.0720 
 36 H        6.1020     3.3450    -1.6660 H     1 <1>   0.0720 
 37 H        7.2510     1.5130    -2.6720 H     1 <1>   0.0720 
 38 H        8.9240     0.1450    -1.5750 H     1 <1>   0.0720 
 39 H        8.8450     1.1120    -0.1280 H     1 <1>   0.0720 
 40 H        9.3630     3.2680    -1.3930 H     1 <1>   0.0720 
 41 H        8.4680     3.6400    -2.8470 H     1 <1>   0.0720 
 42 H        9.5700     2.2920    -2.8260 H     1 <1>   0.0720 
 43 H        7.7610    -1.9020    -2.2410 H     1 <1>   0.1430 
 44 H        7.7000    -3.7950     2.2940 H     1 <1>   0.1430 
 45 H        7.2650    -0.6640     4.1170 H     1 <1>   0.0720 
 46 H        8.4940    -1.7800     3.5330 H     1 <1>   0.0720 
 47 H        6.8350    -2.3400     3.8050 H     1 <1>   0.0720 
 48 H        8.2200    -5.2060     0.3970 H     1 <1>   0.1430 
 49 H        8.0940    -4.0850    -3.1550 H     1 <1>   0.0720 
 50 H        7.7980    -5.4730    -2.1420 H     1 <1>   0.0720 
 51 H        9.4000    -4.7800    -2.2250 H     1 <1>   0.0720 
@<TRIPOS>BOND
  1   1   2  2   
  2   2   3  am  
  3   2   4  am  
  4   3   5  am  
  5   3   6  1   
  6   4   7  1   
  7   4   8  1   
  8   5   9  2   
  9   5  10  1   
 10   6  28  1   
 11   6  29  1   
 12   6  30  1   
 13   7  10  2   
 14   7  11  1   
 15   8  31  1   
 16   8  32  1   
 17   8  33  1   
 18  10  12  1   
 19  11  13  ar  
 20  11  34  1   
 21  12  13  ar  
 22  12  14  1   
 23  13  15  ar  
 24  14  16  1   
 25  14  35  1   
 26  14  36  1   
 27  15  17  1   
 28  15  18  1   
 29  16  18  1   
 30  16  19  1   
 31  16  37  1   
 32  17  20  ar  
 33  17  21  ar  
 34  18  38  1   
 35  18  39  1   
 36  19  40  1   
 37  19  41  1   
 38  19  42  1   
 39  20  22  1   
 40  20  23  ar  
 41  21  24  ar  
 42  21  43  1   
 43  22  25  1   
 44  23  26  ar  
 45  23  44  1   
 46  24  26  ar  
 47  24  27  1   
 48  25  45  1   
 49  25  46  1   
 50  25  47  1   
 51  26  48  1   
 52  27  49  1   
 53  27  50  1   
 54  27  51  1   
@<TRIPOS>SUBSTRUCTURE
  1 ****  13 GROUP 4 **** **** 0

# MOE 2024.06 (io_trps.svl 2023.06)
