@<TRIPOS>MOLECULE
7-Fluoro-2-methyl-4-(2-morpholin-4-yl-ethyl)-4H-thiazolo[5,4-b]indole
41 44 1 0 0 
SMALL
USER_CHARGES


@<TRIPOS>ATOM
  1 S       -0.6310    -0.5430     0.0480 S.3   1 <1>  -0.0800 
  2 C       -2.2200     0.0470    -0.3380 C.2   1 <1>  -0.1120 
  3 C       -0.2520     1.0830     0.6480 C.2   1 <1>   0.1980 
  4 N       -3.3570    -0.4680    -0.8650 N.pl3 1 <1>   0.0480 
  5 C       -2.3270     1.3400     0.0060 C.2   1 <1>   0.2270 
  6 N       -1.2050     1.9270     0.5680 N.2   1 <1>  -0.5650 
  7 C        1.1420     1.3060     1.1880 C.3   1 <1>  -0.0600 
  8 C       -4.2740     0.5730    -0.8480 C.ar  1 <1>  -0.1520 
  9 C       -3.5950    -1.8910    -1.1350 C.3   1 <1>   0.0960 
 10 C       -3.6530     1.7170    -0.3120 C.ar  1 <1>   0.0000 
 11 C       -5.6130     0.6160    -1.2600 C.ar  1 <1>  -0.1500 
 12 C       -3.7860    -2.5990     0.2120 C.3   1 <1>   0.3430 
 13 C       -4.3680     2.9100    -0.1850 C.ar  1 <1>  -0.1500 
 14 C       -6.3140     1.7950    -1.1320 C.ar  1 <1>  -0.1500 
 15 N       -3.9070    -4.0900     0.0830 N.4   1 <1>  -0.9590 
 16 C       -5.6770     2.9170    -0.5970 C.ar  1 <1>   0.1900 
 17 C       -4.3410    -4.6880     1.3980 C.3   1 <1>   0.3430 
 18 C       -2.6180    -4.7380    -0.3660 C.3   1 <1>   0.3430 
 19 F       -6.3720     4.0210    -0.4890 F     1 <1>  -0.1900 
 20 C       -4.3620    -6.2280     1.3460 C.3   1 <1>   0.1200 
 21 C       -2.7140    -6.2760    -0.3390 C.3   1 <1>   0.1200 
 22 O       -3.1200    -6.7110     0.9250 O.3   1 <1>  -0.5600 
 23 H        1.8660     1.1230     0.4160 H     1 <1>   0.0800 
 24 H        1.3250     0.6460     2.0140 H     1 <1>   0.0800 
 25 H        1.2400     2.3220     1.5240 H     1 <1>   0.0800 
 26 H       -2.7390    -2.2750    -1.6580 H     1 <1>   0.0800 
 27 H       -4.4700    -1.9910    -1.7500 H     1 <1>   0.0800 
 28 H       -6.0910    -0.2510    -1.6790 H     1 <1>   0.1500 
 29 H       -4.6760    -2.2060     0.6760 H     1 <1>   0.0800 
 30 H       -2.9470    -2.3660     0.8490 H     1 <1>   0.0800 
 31 H       -3.8950     3.7850     0.2230 H     1 <1>   0.1500 
 32 H       -7.3420     1.8760    -1.4370 H     1 <1>   0.1500 
 33 H       -4.6360    -4.3220    -0.6050 H     1 <1>   0.4500 
 34 H       -5.3230    -4.3300     1.6630 H     1 <1>   0.0800 
 35 H       -3.6600    -4.3890     2.1790 H     1 <1>   0.0800 
 36 H       -1.8130    -4.4410     0.2870 H     1 <1>   0.0800 
 37 H       -2.3680    -4.4200    -1.3640 H     1 <1>   0.0800 
 38 H       -5.1230    -6.5890     0.6760 H     1 <1>   0.0800 
 39 H       -4.5520    -6.6300     2.3270 H     1 <1>   0.0800 
 40 H       -1.7500    -6.7110    -0.5380 H     1 <1>   0.0800 
 41 H       -3.4110    -6.6400    -1.0740 H     1 <1>   0.0800 
@<TRIPOS>BOND
  1   1   2  1   
  2   1   3  1   
  3   2   4  1   
  4   2   5  2   
  5   3   6  2   
  6   3   7  1   
  7   4   8  1   
  8   4   9  1   
  9   5   6  1   
 10   5  10  1   
 11   7  23  1   
 12   7  24  1   
 13   7  25  1   
 14   8  10  ar  
 15   8  11  ar  
 16   9  12  1   
 17   9  26  1   
 18   9  27  1   
 19  10  13  ar  
 20  11  14  ar  
 21  11  28  1   
 22  12  15  1   
 23  12  29  1   
 24  12  30  1   
 25  13  16  ar  
 26  13  31  1   
 27  14  16  ar  
 28  14  32  1   
 29  15  17  1   
 30  15  18  1   
 31  15  33  1   
 32  16  19  1   
 33  17  20  1   
 34  17  34  1   
 35  17  35  1   
 36  18  21  1   
 37  18  36  1   
 38  18  37  1   
 39  20  22  1   
 40  20  38  1   
 41  20  39  1   
 42  21  22  1   
 43  21  40  1   
 44  21  41  1   
@<TRIPOS>SUBSTRUCTURE
  1 ****   4 GROUP 4 **** **** 0

# MOE 2024.06 (io_trps.svl 2023.06)
