@<TRIPOS>MOLECULE
3-(2-Methoxy-ethyl)-8-(2-methoxy-5-methyl-phenyl)-1-methyl-7,8-dihydro-1H,6H-imi
52 55 1 0 0 
SMALL
USER_CHARGES


@<TRIPOS>ATOM
  1 O        0.1310     0.8720    -1.3880 O.2   1 <1>  -0.5740 
  2 C        1.1400     0.8940    -0.7150 C.2   1 <1>   0.6860 
  3 N        1.3020     1.8650     0.2690 N.am  1 <1>  -0.4250 
  4 N        2.1390    -0.0440    -0.9430 N.am  1 <1>  -0.4410 
  5 C        2.4880     1.9760     0.9820 C.2   1 <1>   0.7000 
  6 C        0.1780     2.8120     0.5530 C.3   1 <1>   0.1330 
  7 C        3.3090     0.0630    -0.2180 C.2   1 <1>   0.4210 
  8 C        1.9640    -1.1170    -1.9660 C.3   1 <1>   0.0530 
  9 O        2.6550     2.8650     1.7990 O.2   1 <1>  -0.5740 
 10 C        3.5170     1.0210     0.7160 C.2   1 <1>   0.2710 
 11 C        0.2300     4.0130    -0.3910 C.3   1 <1>   0.1130 
 12 N        4.4320    -0.7120    -0.3090 N.pl3 1 <1>  -0.7030 
 13 N        4.8120     0.8020     1.1960 N.pl3 1 <1>  -0.7670 
 14 O       -0.7950     4.8820    -0.0370 O.3   1 <1>  -0.5640 
 15 C        5.3140    -0.2240     0.5520 C.cat 1 <1>   1.0690 
 16 C        5.7800     1.3980     2.1290 C.3   1 <1>   0.3480 
 17 C       -0.8790     6.0120    -0.8440 C.3   1 <1>   0.0320 
 18 N        6.5670    -0.5220     0.9050 N.pl3 1 <1>  -0.5800 
 19 C        7.0060     0.4710     1.9360 C.3   1 <1>   0.1610 
 20 C        7.4090    -1.5300     0.3860 C.ar  1 <1>   0.3050 
 21 C        7.5070    -1.7930    -0.9900 C.ar  1 <1>   0.0750 
 22 C        8.1660    -2.2910     1.2680 C.ar  1 <1>  -0.1570 
 23 O        6.7680    -1.0400    -1.8580 O.3   1 <1>  -0.3680 
 24 C        8.3500    -2.8040    -1.4400 C.ar  1 <1>  -0.1570 
 25 C        9.0050    -3.2950     0.8160 C.ar  1 <1>  -0.1510 
 26 C        7.1230    -0.9560    -3.2250 C.3   1 <1>   0.0320 
 27 C        9.0930    -3.5460    -0.5400 C.ar  1 <1>  -0.1570 
 28 C        9.8270    -4.1170     1.7940 C.3   1 <1>  -0.1040 
 29 H        0.2360     3.1600     1.5700 H     1 <1>   0.0730 
 30 H       -0.7640     2.3060     0.4290 H     1 <1>   0.0730 
 31 H        2.4300    -2.0290    -1.6370 H     1 <1>   0.0730 
 32 H        2.4030    -0.8050    -2.8970 H     1 <1>   0.0730 
 33 H        0.9180    -1.3160    -2.1280 H     1 <1>   0.0730 
 34 H        0.0750     3.6980    -1.4090 H     1 <1>   0.0730 
 35 H        1.1660     4.5350    -0.2900 H     1 <1>   0.0730 
 36 H        4.6770    -1.4330    -0.9870 H     1 <1>   0.4450 
 37 H        5.4120     1.3640     3.1410 H     1 <1>   0.0730 
 38 H        6.0060     2.4150     1.8540 H     1 <1>   0.0730 
 39 H       -1.6960     6.6150    -0.4900 H     1 <1>   0.0730 
 40 H       -1.0640     5.7090    -1.8600 H     1 <1>   0.0730 
 41 H        0.0400     6.5680    -0.7730 H     1 <1>   0.0730 
 42 H        7.2560    -0.0200     2.8610 H     1 <1>   0.0730 
 43 H        7.8570     1.0290     1.5840 H     1 <1>   0.0730 
 44 H        8.1020    -2.1080     2.3240 H     1 <1>   0.1430 
 45 H        8.4470    -3.0380    -2.4840 H     1 <1>   0.1430 
 46 H        6.5280    -0.1880    -3.6850 H     1 <1>   0.0730 
 47 H        6.9260    -1.9010    -3.7010 H     1 <1>   0.0730 
 48 H        8.1660    -0.7010    -3.3030 H     1 <1>   0.0730 
 49 H        9.7440    -4.3250    -0.9030 H     1 <1>   0.1430 
 50 H        9.3850    -4.1050     2.7740 H     1 <1>   0.0730 
 51 H       10.8240    -3.7180     1.8580 H     1 <1>   0.0730 
 52 H        9.8860    -5.1390     1.4640 H     1 <1>   0.0730 
@<TRIPOS>BOND
  1   1   2  2   
  2   2   3  am  
  3   2   4  am  
  4   3   5  am  
  5   3   6  1   
  6   4   7  1   
  7   4   8  1   
  8   5   9  2   
  9   5  10  1   
 10   6  11  1   
 11   6  29  1   
 12   6  30  1   
 13   7  10  2   
 14   7  12  1   
 15   8  31  1   
 16   8  32  1   
 17   8  33  1   
 18  10  13  1   
 19  11  14  1   
 20  11  34  1   
 21  11  35  1   
 22  12  15  ar  
 23  12  36  1   
 24  13  15  ar  
 25  13  16  1   
 26  14  17  1   
 27  15  18  ar  
 28  16  19  1   
 29  16  37  1   
 30  16  38  1   
 31  17  39  1   
 32  17  40  1   
 33  17  41  1   
 34  18  19  1   
 35  18  20  1   
 36  19  42  1   
 37  19  43  1   
 38  20  21  ar  
 39  20  22  ar  
 40  21  23  1   
 41  21  24  ar  
 42  22  25  ar  
 43  22  44  1   
 44  23  26  1   
 45  24  27  ar  
 46  24  45  1   
 47  25  27  ar  
 48  25  28  1   
 49  26  46  1   
 50  26  47  1   
 51  26  48  1   
 52  27  49  1   
 53  28  50  1   
 54  28  51  1   
 55  28  52  1   
@<TRIPOS>SUBSTRUCTURE
  1 ****  12 GROUP 4 **** **** 0

# MOE 2024.06 (io_trps.svl 2023.06)
