@<TRIPOS>MOLECULE
1-Methyl-2-methylsulfanyl-5-m-tolyl-5,8-dihydro-1H,6H-pyrido[2,3-d]pyrimidine-4,
39 41 1 0 0 
SMALL
USER_CHARGES


@<TRIPOS>ATOM
  1 S        0.0980     0.4200    -1.1870 S.3   1 <1>  -0.3710 
  2 C        1.4250     1.2790    -0.3510 C.2   1 <1>   0.6410 
  3 C       -1.4450     1.2660    -0.6130 C.3   1 <1>  -0.0100 
  4 N        1.0880     2.2310     0.4330 N.2   1 <1>  -0.6610 
  5 N        2.7100     0.8520    -0.6140 N.pl3 1 <1>  -0.5190 
  6 C        2.0950     2.8980     1.0550 C.2   1 <1>   0.7670 
  7 C        3.7440     1.5450    -0.0260 C.2   1 <1>   0.2090 
  8 C        2.9300    -0.3370    -1.4950 C.3   1 <1>   0.1290 
  9 O        1.7780     3.7610     1.8660 O.2   1 <1>  -0.5700 
 10 C        3.4470     2.5820     0.8000 C.2   1 <1>  -0.1240 
 11 N        5.0540     1.1950    -0.2700 N.am  1 <1>  -0.5390 
 12 C        4.5550     3.4180     1.4350 C.3   1 <1>   0.2020 
 13 C        6.1220     1.6980     0.3990 C.2   1 <1>   0.5690 
 14 C        4.7280     4.7210     0.6480 C.ar  1 <1>  -0.1440 
 15 C        5.8740     2.6300     1.5670 C.3   1 <1>  -0.0990 
 16 O        7.2410     1.3990     0.0820 O.2   1 <1>  -0.5700 
 17 C        5.4250     4.7810    -0.5530 C.ar  1 <1>  -0.1500 
 18 C        4.1580     5.8850     1.1450 C.ar  1 <1>  -0.1500 
 19 C        5.5660     5.9770    -1.2370 C.ar  1 <1>  -0.1430 
 20 C        4.2920     7.0820     0.4650 C.ar  1 <1>  -0.1500 
 21 C        4.9970     7.1290    -0.7230 C.ar  1 <1>  -0.1500 
 22 C        6.3360     6.0210    -2.5450 C.3   1 <1>  -0.0970 
 23 H       -2.2820     0.7870    -1.0880 H     1 <1>   0.0800 
 24 H       -1.3790     2.3010    -0.8960 H     1 <1>   0.0800 
 25 H       -1.4980     1.1670     0.4570 H     1 <1>   0.0800 
 26 H        2.6530    -0.0920    -2.5060 H     1 <1>   0.0800 
 27 H        2.3260    -1.1600    -1.1550 H     1 <1>   0.0800 
 28 H        3.9540    -0.6610    -1.4860 H     1 <1>   0.0800 
 29 H        5.2880     0.5510    -1.0220 H     1 <1>   0.3700 
 30 H        4.2590     3.6750     2.4380 H     1 <1>   0.0800 
 31 H        5.8320     2.0250     2.4520 H     1 <1>   0.0800 
 32 H        6.7010     3.3080     1.6710 H     1 <1>   0.0800 
 33 H        5.8670     3.8990    -0.9780 H     1 <1>   0.1500 
 34 H        3.5960     5.8690     2.0630 H     1 <1>   0.1500 
 35 H        3.8440     7.9760     0.8610 H     1 <1>   0.1500 
 36 H        5.0960     8.0640    -1.2460 H     1 <1>   0.1500 
 37 H        6.7520     6.9990    -2.7060 H     1 <1>   0.0800 
 38 H        5.6780     5.7840    -3.3610 H     1 <1>   0.0800 
 39 H        7.1420     5.3090    -2.5290 H     1 <1>   0.0800 
@<TRIPOS>BOND
  1   1   2  1   
  2   1   3  1   
  3   2   4  2   
  4   2   5  1   
  5   3  23  1   
  6   3  24  1   
  7   3  25  1   
  8   4   6  1   
  9   5   7  1   
 10   5   8  1   
 11   6   9  2   
 12   6  10  1   
 13   7  10  2   
 14   7  11  1   
 15   8  26  1   
 16   8  27  1   
 17   8  28  1   
 18  10  12  1   
 19  11  13  am  
 20  11  29  1   
 21  12  14  1   
 22  12  15  1   
 23  12  30  1   
 24  13  15  1   
 25  13  16  2   
 26  14  17  ar  
 27  14  18  ar  
 28  15  31  1   
 29  15  32  1   
 30  17  19  ar  
 31  17  33  1   
 32  18  20  ar  
 33  18  34  1   
 34  19  21  ar  
 35  19  22  1   
 36  20  21  ar  
 37  20  35  1   
 38  21  36  1   
 39  22  37  1   
 40  22  38  1   
 41  22  39  1   
@<TRIPOS>SUBSTRUCTURE
  1 ****  10 GROUP 4 **** **** 0

# MOE 2024.06 (io_trps.svl 2023.06)
