@<TRIPOS>MOLECULE
8-Azepan-1-yl-7-(2-hydroxy-propyl)-1,3-dimethyl-3,7-dihydro-purine-2,6-dione
50 52 1 0 0 
SMALL
USER_CHARGES


@<TRIPOS>ATOM
  1 O        1.1650    -0.0230    -1.2750 O.2   1 <1>  -0.5750 
  2 C        2.0790     0.6560    -0.8540 C.2   1 <1>   0.6860 
  3 N        1.9470     2.0400    -0.7910 N.am  1 <1>  -0.4260 
  4 N        3.2560     0.0500    -0.4350 N.am  1 <1>  -0.4420 
  5 C        2.9700     2.8380    -0.2940 C.2   1 <1>   0.6990 
  6 C        0.6620     2.6630    -1.2390 C.3   1 <1>   0.0520 
  7 C        4.2760     0.8620     0.0210 C.2   1 <1>   0.4200 
  8 C        3.4230    -1.4320    -0.5050 C.3   1 <1>   0.0520 
  9 O        2.8240     4.0460    -0.1980 O.2   1 <1>  -0.5750 
 10 C        4.1900     2.2020     0.1080 C.2   1 <1>   0.2710 
 11 N        5.5080     0.4820     0.4440 N.pl3 1 <1>  -0.7040 
 12 N        5.4300     2.6510     0.6080 N.pl3 1 <1>  -0.7670 
 13 C        6.2130     1.5680     0.7720 C.cat 1 <1>   1.0690 
 14 C        5.7110     4.1120     0.7660 C.3   1 <1>   0.3480 
 15 N        7.4920     1.4660     1.2160 N.pl3 1 <1>  -0.5960 
 16 C        5.9790     4.8140    -0.5910 C.3   1 <1>   0.1930 
 17 C        8.0130     0.1800     1.7730 C.3   1 <1>   0.1600 
 18 C        8.4760     2.5920     1.1870 C.3   1 <1>   0.1600 
 19 O        6.7460     4.0080    -1.4200 O.3   1 <1>  -0.6840 
 20 C        6.7290     6.1350    -0.4300 C.3   1 <1>  -0.2470 
 21 C        8.5920    -0.7040     0.6610 C.3   1 <1>  -0.1670 
 22 C        9.9220     2.1830     0.8730 C.3   1 <1>  -0.1670 
 23 C        9.9800    -0.2700     0.1710 C.3   1 <1>  -0.1670 
 24 C       10.0660     1.1910    -0.2910 C.3   1 <1>  -0.1670 
 25 H       -0.0660     2.5940    -0.4490 H     1 <1>   0.0720 
 26 H        0.2830     2.1510    -2.1070 H     1 <1>   0.0720 
 27 H        0.8020     3.6990    -1.4960 H     1 <1>   0.0720 
 28 H        2.4640    -1.9220    -0.5460 H     1 <1>   0.0720 
 29 H        3.9410    -1.7910     0.3660 H     1 <1>   0.0720 
 30 H        3.9780    -1.6930    -1.3890 H     1 <1>   0.0720 
 31 H        5.9010    -0.4510     0.4330 H     1 <1>   0.4450 
 32 H        6.5450     4.2630     1.4250 H     1 <1>   0.0720 
 33 H        4.8700     4.5900     1.2400 H     1 <1>   0.0720 
 34 H        5.0420     4.9950    -1.0920 H     1 <1>   0.0720 
 35 H        7.2130    -0.3470     2.2640 H     1 <1>   0.0720 
 36 H        8.7610     0.3730     2.5240 H     1 <1>   0.0720 
 37 H        8.4560     3.1060     2.1330 H     1 <1>   0.0720 
 38 H        8.1910     3.2870     0.4220 H     1 <1>   0.0720 
 39 H        6.9430     4.4810    -2.2550 H     1 <1>   0.3940 
 40 H        7.6940     5.9760     0.0180 H     1 <1>   0.0720 
 41 H        6.1660     6.8010     0.1990 H     1 <1>   0.0720 
 42 H        6.8550     6.6130    -1.3860 H     1 <1>   0.0720 
 43 H        7.9210    -0.7480    -0.1770 H     1 <1>   0.0720 
 44 H        8.6870    -1.7050     1.0440 H     1 <1>   0.0720 
 45 H       10.4020     1.8000     1.7560 H     1 <1>   0.0720 
 46 H       10.4530     3.0820     0.6130 H     1 <1>   0.0720 
 47 H       10.2620    -0.9040    -0.6530 H     1 <1>   0.0720 
 48 H       10.7030    -0.4360     0.9520 H     1 <1>   0.0720 
 49 H       11.0390     1.3330    -0.7310 H     1 <1>   0.0720 
 50 H        9.3380     1.3930    -1.0580 H     1 <1>   0.0720 
@<TRIPOS>BOND
  1   1   2  2   
  2   2   3  am  
  3   2   4  am  
  4   3   5  am  
  5   3   6  1   
  6   4   7  1   
  7   4   8  1   
  8   5   9  2   
  9   5  10  1   
 10   6  25  1   
 11   6  26  1   
 12   6  27  1   
 13   7  10  2   
 14   7  11  1   
 15   8  28  1   
 16   8  29  1   
 17   8  30  1   
 18  10  12  1   
 19  11  13  ar  
 20  11  31  1   
 21  12  13  ar  
 22  12  14  1   
 23  13  15  ar  
 24  14  16  1   
 25  14  32  1   
 26  14  33  1   
 27  15  17  1   
 28  15  18  1   
 29  16  19  1   
 30  16  20  1   
 31  16  34  1   
 32  17  21  1   
 33  17  35  1   
 34  17  36  1   
 35  18  22  1   
 36  18  37  1   
 37  18  38  1   
 38  19  39  1   
 39  20  40  1   
 40  20  41  1   
 41  20  42  1   
 42  21  23  1   
 43  21  43  1   
 44  21  44  1   
 45  22  24  1   
 46  22  45  1   
 47  22  46  1   
 48  23  24  1   
 49  23  47  1   
 50  23  48  1   
 51  24  49  1   
 52  24  50  1   
@<TRIPOS>SUBSTRUCTURE
  1 ****  12 GROUP 4 **** **** 0

# MOE 2024.06 (io_trps.svl 2023.06)
