@<TRIPOS>MOLECULE
2-[(Z)-Cyclopentylimino]-10-oxo-1,10-dihydro-2H-1,9,10a-triaza-anthracene-3-carb
55 59 1 0 0 
SMALL
USER_CHARGES


@<TRIPOS>ATOM
  1 O        0.2480    -0.2800    -0.4450 O.2   1 <1>  -0.5700 
  2 C        0.2010    -1.4600    -0.1840 C.2   1 <1>   0.8650 
  3 N       -1.0580    -2.0480     0.0440 N.pl3 1 <1>  -0.5760 
  4 C        1.3980    -2.2350    -0.1040 C.ar  1 <1>   0.0860 
  5 C       -1.1400    -3.3610     0.3680 C.cat 1 <1>   0.7390 
  6 C       -2.2160    -1.3060    -0.0540 C.2   1 <1>   0.1910 
  7 C        1.2390    -3.5730     0.2350 C.ar  1 <1>   0.6590 
  8 C        2.6900    -1.7780    -0.3340 C.ar  1 <1>  -0.1500 
  9 N       -0.0060    -4.0690     0.4580 N.pl3 1 <1>  -0.6530 
 10 C       -2.3900    -3.9510     0.6010 C.2   1 <1>  -0.1800 
 11 C       -3.4430    -1.8670     0.1690 C.2   1 <1>  -0.1500 
 12 N        2.2040    -4.4460     0.3670 N.ar  1 <1>  -0.6200 
 13 C        3.7450    -2.6680    -0.2180 C.ar  1 <1>   0.0860 
 14 C       -3.5440    -3.2200     0.5050 C.2   1 <1>  -0.1500 
 15 C        3.4360    -4.0020     0.1410 C.ar  1 <1>   0.4100 
 16 C        5.1060    -2.2480    -0.4650 C.2   1 <1>   0.5440 
 17 N        4.4290    -4.9220     0.2810 N.pl3 1 <1>  -0.8690 
 18 O        5.8760    -2.9600    -1.0810 O.2   1 <1>  -0.5700 
 19 N        5.5530    -1.0340    -0.0240 N.am  1 <1>  -0.7300 
 20 C        4.3150    -6.3800     0.4620 C.3   1 <1>   0.2890 
 21 C        6.9180    -0.5070    -0.2260 C.3   1 <1>   0.2200 
 22 C        5.5290    -6.8560     1.2480 C.3   1 <1>  -0.1600 
 23 C        4.4960    -7.0480    -0.8950 C.3   1 <1>  -0.1600 
 24 C        7.6190    -0.4270     1.1240 C.3   1 <1>  -0.1600 
 25 C        6.8240     0.9510    -0.6600 C.3   1 <1>  -0.1600 
 26 C        6.6710    -6.9650     0.2300 C.3   1 <1>  -0.1600 
 27 C        6.0080    -7.0590    -1.1500 C.3   1 <1>  -0.1600 
 28 C        7.1330     0.8740     1.7730 C.3   1 <1>  -0.1600 
 29 C        6.6300     1.7620     0.6270 C.3   1 <1>  -0.1600 
 30 H       -2.1460    -0.2580    -0.3140 H     1 <1>   0.1500 
 31 H        2.8660    -0.7510    -0.6120 H     1 <1>   0.1500 
 32 H       -0.0140    -5.0610     0.6990 H     1 <1>   0.4500 
 33 H       -2.4360    -4.9940     0.8570 H     1 <1>   0.1500 
 34 H       -4.3420    -1.2770     0.0890 H     1 <1>   0.1500 
 35 H       -4.5150    -3.6580     0.6800 H     1 <1>   0.1500 
 36 H        5.3510    -4.6560    -0.1040 H     1 <1>   0.4000 
 37 H        5.0000    -0.4690     0.6180 H     1 <1>   0.3700 
 38 H        3.3870    -6.6460     0.9390 H     1 <1>   0.0800 
 39 H        7.4640    -1.1080    -0.9350 H     1 <1>   0.0800 
 40 H        5.3180    -7.8350     1.6410 H     1 <1>   0.0800 
 41 H        5.7640    -6.1990     2.0670 H     1 <1>   0.0800 
 42 H        3.9500    -6.5440    -1.6720 H     1 <1>   0.0800 
 43 H        4.1460    -8.0630    -0.8260 H     1 <1>   0.0800 
 44 H        8.6790    -0.3540     0.9500 H     1 <1>   0.0800 
 45 H        7.4320    -1.2940     1.7320 H     1 <1>   0.0800 
 46 H        6.0420     1.1130    -1.3810 H     1 <1>   0.0800 
 47 H        7.7620     1.2290    -1.1070 H     1 <1>   0.0800 
 48 H        7.2830    -7.8270     0.4320 H     1 <1>   0.0800 
 49 H        7.2890    -6.0840     0.2740 H     1 <1>   0.0800 
 50 H        6.2820    -6.1990    -1.7390 H     1 <1>   0.0800 
 51 H        6.3070    -7.9490    -1.6760 H     1 <1>   0.0800 
 52 H        7.9310     1.3510     2.3180 H     1 <1>   0.0800 
 53 H        6.3260     0.6660     2.4540 H     1 <1>   0.0800 
 54 H        5.5870     1.9850     0.7690 H     1 <1>   0.0800 
 55 H        7.1780     2.6880     0.5790 H     1 <1>   0.0800 
@<TRIPOS>BOND
  1   1   2  2   
  2   2   3  1   
  3   2   4  1   
  4   3   5  ar  
  5   3   6  1   
  6   4   7  ar  
  7   4   8  ar  
  8   5   9  ar  
  9   5  10  1   
 10   6  11  2   
 11   6  30  1   
 12   7   9  1   
 13   7  12  ar  
 14   8  13  ar  
 15   8  31  1   
 16   9  32  1   
 17  10  14  2   
 18  10  33  1   
 19  11  14  1   
 20  11  34  1   
 21  12  15  ar  
 22  13  15  ar  
 23  13  16  1   
 24  14  35  1   
 25  15  17  1   
 26  16  18  2   
 27  16  19  am  
 28  17  20  1   
 29  17  36  1   
 30  19  21  1   
 31  19  37  1   
 32  20  22  1   
 33  20  23  1   
 34  20  38  1   
 35  21  24  1   
 36  21  25  1   
 37  21  39  1   
 38  22  26  1   
 39  22  40  1   
 40  22  41  1   
 41  23  27  1   
 42  23  42  1   
 43  23  43  1   
 44  24  28  1   
 45  24  44  1   
 46  24  45  1   
 47  25  29  1   
 48  25  46  1   
 49  25  47  1   
 50  26  27  1   
 51  26  48  1   
 52  26  49  1   
 53  27  50  1   
 54  27  51  1   
 55  28  29  1   
 56  28  52  1   
 57  28  53  1   
 58  29  54  1   
 59  29  55  1   
@<TRIPOS>SUBSTRUCTURE
  1 ****  13 GROUP 4 **** **** 0

# MOE 2024.06 (io_trps.svl 2023.06)
