@<TRIPOS>MOLECULE
4-(2,5-Dimethoxy-phenyl)-2,7-dimethyl-5-oxo-1,4,5,6,7,8-hexahydro-quinoline-3-ca
62 65 1 0 0 
SMALL
USER_CHARGES


@<TRIPOS>ATOM
  1 O       -0.1520    -0.5760    -1.6730 O.2   1 <1>  -0.5700 
  2 C        0.0580    -1.4410    -0.8580 C.2   1 <1>   0.4950 
  3 C        1.3360    -2.0130    -0.5910 C.2   1 <1>  -0.1240 
  4 C       -1.1540    -1.9950    -0.1260 C.3   1 <1>  -0.0990 
  5 C        1.5060    -3.0930     0.2150 C.2   1 <1>  -0.0380 
  6 C        2.5480    -1.3810    -1.2920 C.3   1 <1>   0.3400 
  7 C       -0.7800    -2.6900     1.1950 C.3   1 <1>  -0.0800 
  8 N        2.7270    -3.7020     0.3730 N.pl3 1 <1>  -0.6000 
  9 C        0.3440    -3.7150     0.9740 C.3   1 <1>  -0.0220 
 10 C        3.8360    -2.1840    -1.0990 C.2   1 <1>  -0.1240 
 11 C        2.7660     0.0740    -0.8380 C.ar  1 <1>  -0.1440 
 12 C       -2.0100    -3.3480     1.8350 C.3   1 <1>  -0.2400 
 13 C        3.8560    -3.2770    -0.2920 C.2   1 <1>  -0.0380 
 14 C        4.9460    -1.6250    -1.7950 C.2   1 <1>   0.6160 
 15 C        3.3190     0.4100     0.3980 C.ar  1 <1>   0.0830 
 16 C        2.4180     1.1060    -1.7000 C.ar  1 <1>  -0.1500 
 17 C        5.0860    -4.1310    -0.0320 C.3   1 <1>  -0.1020 
 18 O        4.9650    -1.5900    -3.0110 O.2   1 <1>  -0.5700 
 19 N        5.9740    -1.1130    -1.0530 N.am  1 <1>  -0.5470 
 20 O        3.7000    -0.5470     1.2720 O.3   1 <1>  -0.3630 
 21 C        3.5230     1.7370     0.7470 C.ar  1 <1>  -0.1500 
 22 C        2.6130     2.4350    -1.3580 C.ar  1 <1>   0.0830 
 23 C        7.2010    -0.5680    -1.3520 C.ar  1 <1>   0.4270 
 24 C        2.8960    -0.6980     2.4170 C.3   1 <1>   0.0400 
 25 C        3.1710     2.7510    -0.1230 C.ar  1 <1>  -0.1500 
 26 O        2.2400     3.3640    -2.2770 O.3   1 <1>  -0.3630 
 27 N        7.8800    -0.2140    -0.2700 N.ar  1 <1>  -0.6200 
 28 C        7.6930    -0.4030    -2.6460 C.ar  1 <1>  -0.1500 
 29 C        2.4280     4.7400    -2.0380 C.3   1 <1>   0.0400 
 30 C        9.0720     0.3200    -0.4680 C.ar  1 <1>   0.1670 
 31 C        8.9360     0.1520    -2.8440 C.ar  1 <1>  -0.1500 
 32 C        9.6380     0.5220    -1.7160 C.ar  1 <1>  -0.1500 
 33 C        9.8270     0.7200     0.7820 C.3   1 <1>  -0.0970 
 34 H       -1.6460    -2.6890    -0.7820 H     1 <1>   0.0800 
 35 H       -1.8340    -1.1860     0.0720 H     1 <1>   0.0800 
 36 H        2.3360    -1.3850    -2.3480 H     1 <1>   0.0800 
 37 H       -0.4110    -1.9360     1.8720 H     1 <1>   0.0800 
 38 H        2.8030    -4.5270     0.9780 H     1 <1>   0.4000 
 39 H        0.6860    -4.0680     1.9310 H     1 <1>   0.0800 
 40 H       -0.0210    -4.5590     0.4150 H     1 <1>   0.0800 
 41 H       -2.4150    -4.1100     1.1910 H     1 <1>   0.0800 
 42 H       -2.7750    -2.6130     2.0160 H     1 <1>   0.0800 
 43 H       -1.7480    -3.7980     2.7760 H     1 <1>   0.0800 
 44 H        1.9810     0.8910    -2.6590 H     1 <1>   0.1500 
 45 H        4.8680    -5.1610    -0.2500 H     1 <1>   0.0800 
 46 H        5.3770    -4.0450     0.9990 H     1 <1>   0.0800 
 47 H        5.9160    -3.8330    -0.6450 H     1 <1>   0.0800 
 48 H        5.7650    -1.0390    -0.0590 H     1 <1>   0.3700 
 49 H        3.9670     1.9720     1.6960 H     1 <1>   0.1500 
 50 H        3.2290    -1.5720     2.9460 H     1 <1>   0.0800 
 51 H        1.8730    -0.8220     2.1080 H     1 <1>   0.0800 
 52 H        2.9990     0.1740     3.0370 H     1 <1>   0.0800 
 53 H        3.3400     3.7680     0.1720 H     1 <1>   0.1500 
 54 H        7.1100    -0.7040    -3.4930 H     1 <1>   0.1500 
 55 H        2.0750     5.2780    -2.8990 H     1 <1>   0.0800 
 56 H        3.4770     4.9280    -1.8940 H     1 <1>   0.0800 
 57 H        1.8600     5.0240    -1.1710 H     1 <1>   0.0800 
 58 H        9.3390     0.2920    -3.8310 H     1 <1>   0.1500 
 59 H       10.6130     0.9620    -1.8110 H     1 <1>   0.1500 
 60 H        9.9830    -0.1460     1.3990 H     1 <1>   0.0800 
 61 H        9.2490     1.4380     1.3340 H     1 <1>   0.0800 
 62 H       10.7800     1.1510     0.5400 H     1 <1>   0.0800 
@<TRIPOS>BOND
  1   1   2  2   
  2   2   3  1   
  3   2   4  1   
  4   3   5  2   
  5   3   6  1   
  6   4   7  1   
  7   4  34  1   
  8   4  35  1   
  9   5   8  1   
 10   5   9  1   
 11   6  10  1   
 12   6  11  1   
 13   6  36  1   
 14   7   9  1   
 15   7  12  1   
 16   7  37  1   
 17   8  13  1   
 18   8  38  1   
 19   9  39  1   
 20   9  40  1   
 21  10  13  2   
 22  10  14  1   
 23  11  15  ar  
 24  11  16  ar  
 25  12  41  1   
 26  12  42  1   
 27  12  43  1   
 28  13  17  1   
 29  14  18  2   
 30  14  19  am  
 31  15  20  1   
 32  15  21  ar  
 33  16  22  ar  
 34  16  44  1   
 35  17  45  1   
 36  17  46  1   
 37  17  47  1   
 38  19  23  1   
 39  19  48  1   
 40  20  24  1   
 41  21  25  ar  
 42  21  49  1   
 43  22  25  ar  
 44  22  26  1   
 45  23  27  ar  
 46  23  28  ar  
 47  24  50  1   
 48  24  51  1   
 49  24  52  1   
 50  25  53  1   
 51  26  29  1   
 52  27  30  ar  
 53  28  31  ar  
 54  28  54  1   
 55  29  55  1   
 56  29  56  1   
 57  29  57  1   
 58  30  32  ar  
 59  30  33  1   
 60  31  32  ar  
 61  31  58  1   
 62  32  59  1   
 63  33  60  1   
 64  33  61  1   
 65  33  62  1   
@<TRIPOS>SUBSTRUCTURE
  1 ****  11 GROUP 4 **** **** 0

# MOE 2024.06 (io_trps.svl 2023.06)
