@<TRIPOS>MOLECULE
Adamantane-1-carboxylic acid (3-phenyl-[1,2,4]oxadiazol-5-ylmethyl)-amide
48 52 1 0 0 
SMALL
USER_CHARGES


@<TRIPOS>ATOM
  1 O       -0.0100     1.0240     1.4960 O.2   1 <1>  -0.5700 
  2 C        0.3250     1.7420     0.5840 C.2   1 <1>   0.5690 
  3 N        1.5840     1.6600     0.0820 N.am  1 <1>  -0.7300 
  4 C       -0.6850     2.7530    -0.0010 C.3   1 <1>   0.0610 
  5 C        2.6540     0.7860     0.6290 C.3   1 <1>   0.3200 
  6 C       -1.1330     3.7440     1.1020 C.3   1 <1>  -0.1600 
  7 C       -1.9380     2.0050    -0.5220 C.3   1 <1>  -0.1600 
  8 C       -0.0980     3.5820    -1.1790 C.3   1 <1>  -0.1600 
  9 C        3.9460     1.5630     0.8270 C.2   1 <1>   0.2980 
 10 C       -2.1770     4.7400     0.5630 C.3   1 <1>  -0.0800 
 11 C       -2.9860     2.9930    -1.0690 C.3   1 <1>  -0.0800 
 12 C       -1.1370     4.5760    -1.7290 C.3   1 <1>  -0.0800 
 13 O        4.0140     2.4200     1.8110 O.3   1 <1>  -0.0190 
 14 N        4.9920     1.4700     0.1120 N.2   1 <1>  -0.5650 
 15 C       -3.4030     3.9590     0.0540 C.3   1 <1>  -0.1600 
 16 C       -1.5630     5.5360    -0.6030 C.3   1 <1>  -0.1600 
 17 C       -2.3680     3.7970    -2.2270 C.3   1 <1>  -0.1600 
 18 N        5.2070     2.9160     1.7160 N.2   1 <1>  -0.4100 
 19 C        5.7910     2.3580     0.7140 C.2   1 <1>   0.4620 
 20 C        7.1450     2.6330     0.2610 C.ar  1 <1>   0.0540 
 21 C        7.9480     3.5740     0.9090 C.ar  1 <1>  -0.1500 
 22 C        7.7010     1.9730    -0.8370 C.ar  1 <1>  -0.1500 
 23 C        9.2370     3.8440     0.4850 C.ar  1 <1>  -0.1500 
 24 C        8.9890     2.2370    -1.2670 C.ar  1 <1>  -0.1500 
 25 C        9.7610     3.1750    -0.6060 C.ar  1 <1>  -0.1500 
 26 H        1.8670     2.2760    -0.6810 H     1 <1>   0.3700 
 27 H        2.8310    -0.0210    -0.0600 H     1 <1>   0.0800 
 28 H        2.3490     0.3630     1.5710 H     1 <1>   0.0800 
 29 H       -0.2780     4.2800     1.4760 H     1 <1>   0.0800 
 30 H       -1.5560     3.1970     1.9280 H     1 <1>   0.0800 
 31 H       -2.3740     1.4310     0.2780 H     1 <1>   0.0800 
 32 H       -1.6530     1.3130    -1.2950 H     1 <1>   0.0800 
 33 H        0.2090     2.9230    -1.9730 H     1 <1>   0.0800 
 34 H        0.7660     4.1300    -0.8460 H     1 <1>   0.0800 
 35 H       -2.4750     5.4140     1.3470 H     1 <1>   0.0800 
 36 H       -3.8470     2.4510    -1.4210 H     1 <1>   0.0800 
 37 H       -0.7100     5.1380    -2.5420 H     1 <1>   0.0800 
 38 H       -4.1460     4.6460    -0.3130 H     1 <1>   0.0800 
 39 H       -3.8440     3.4060     0.8650 H     1 <1>   0.0800 
 40 H       -0.7120     6.0940    -0.2560 H     1 <1>   0.0800 
 41 H       -2.2830     6.2410    -0.9800 H     1 <1>   0.0800 
 42 H       -3.0970     4.4830    -2.6220 H     1 <1>   0.0800 
 43 H       -2.0830     3.1310    -3.0230 H     1 <1>   0.0800 
 44 H        7.5580     4.1040     1.7600 H     1 <1>   0.1500 
 45 H        7.1170     1.2390    -1.3650 H     1 <1>   0.1500 
 46 H        9.8330     4.5740     1.0040 H     1 <1>   0.1500 
 47 H        9.3920     1.7130    -2.1170 H     1 <1>   0.1500 
 48 H       10.7640     3.3830    -0.9380 H     1 <1>   0.1500 
@<TRIPOS>BOND
  1   1   2  2   
  2   2   3  am  
  3   2   4  1   
  4   3   5  1   
  5   3  26  1   
  6   4   6  1   
  7   4   7  1   
  8   4   8  1   
  9   5   9  1   
 10   5  27  1   
 11   5  28  1   
 12   6  10  1   
 13   6  29  1   
 14   6  30  1   
 15   7  11  1   
 16   7  31  1   
 17   7  32  1   
 18   8  12  1   
 19   8  33  1   
 20   8  34  1   
 21   9  13  1   
 22   9  14  2   
 23  10  15  1   
 24  10  16  1   
 25  10  35  1   
 26  11  15  1   
 27  11  17  1   
 28  11  36  1   
 29  12  16  1   
 30  12  17  1   
 31  12  37  1   
 32  13  18  1   
 33  14  19  1   
 34  15  38  1   
 35  15  39  1   
 36  16  40  1   
 37  16  41  1   
 38  17  42  1   
 39  17  43  1   
 40  18  19  2   
 41  19  20  1   
 42  20  21  ar  
 43  20  22  ar  
 44  21  23  ar  
 45  21  44  1   
 46  22  24  ar  
 47  22  45  1   
 48  23  25  ar  
 49  23  46  1   
 50  24  25  ar  
 51  24  47  1   
 52  25  48  1   
@<TRIPOS>SUBSTRUCTURE
  1 ****   3 GROUP 4 **** **** 0

# MOE 2024.06 (io_trps.svl 2023.06)
