@<TRIPOS>MOLECULE
1-(Furan-2-carbonyl)-piperidine-4-carboxylic acid (2,5-dimethoxy-phenyl)-amide
48 50 1 0 0 
SMALL
USER_CHARGES


@<TRIPOS>ATOM
  1 O        0.0280     1.8320    -2.1380 O.2   1 <1>  -0.5700 
  2 C       -0.2460     2.2900    -1.0420 C.2   1 <1>   0.7150 
  3 N        0.7890     2.7420    -0.2380 N.am  1 <1>  -0.6600 
  4 C       -1.6250     2.3240    -0.5980 C.2   1 <1>   0.0550 
  5 C        2.2120     2.4350    -0.5570 C.3   1 <1>   0.1400 
  6 C        0.5910     3.7080     0.8790 C.3   1 <1>   0.1400 
  7 O       -2.6000     2.7160    -1.4140 O.3   1 <1>  -0.2800 
  8 C       -2.1820     1.9970     0.6030 C.2   1 <1>  -0.1500 
  9 C        2.9690     3.7300    -0.8650 C.3   1 <1>  -0.1600 
 10 C        1.3510     5.0040     0.5840 C.3   1 <1>  -0.1600 
 11 C       -3.7450     2.6530    -0.7740 C.2   1 <1>  -0.0100 
 12 C       -3.5560     2.2140     0.4880 C.2   1 <1>  -0.1500 
 13 C        2.8420     4.7450     0.2860 C.3   1 <1>  -0.0190 
 14 C        3.6200     6.0240    -0.0250 C.2   1 <1>   0.5690 
 15 O        3.0410     6.9740    -0.4940 O.2   1 <1>  -0.5700 
 16 N        4.9590     6.0120     0.2480 N.am  1 <1>  -0.5470 
 17 C        5.9910     6.9580     0.1010 C.ar  1 <1>   0.1170 
 18 C        7.2800     6.5780     0.4930 C.ar  1 <1>   0.0830 
 19 C        5.7950     8.2360    -0.4080 C.ar  1 <1>  -0.1500 
 20 O        7.4320     5.3100     0.9910 O.3   1 <1>  -0.3630 
 21 C        8.3380     7.4730     0.3710 C.ar  1 <1>  -0.1500 
 22 C        6.8470     9.1270    -0.5320 C.ar  1 <1>   0.0830 
 23 C        8.6940     4.8450     1.4210 C.3   1 <1>   0.0400 
 24 C        8.1240     8.7420    -0.1390 C.ar  1 <1>  -0.1500 
 25 O        6.5530    10.3530    -1.0410 O.3   1 <1>  -0.3630 
 26 C        7.5510    11.3350    -1.2080 C.3   1 <1>   0.0400 
 27 H        2.2820     1.7690    -1.4000 H     1 <1>   0.0800 
 28 H        2.6580     1.9410     0.2880 H     1 <1>   0.0800 
 29 H        0.9530     3.2680     1.7920 H     1 <1>   0.0800 
 30 H       -0.4500     3.9440     1.0070 H     1 <1>   0.0800 
 31 H       -1.6800     1.6340     1.4820 H     1 <1>   0.1500 
 32 H        2.5730     4.1560    -1.7710 H     1 <1>   0.0800 
 33 H        4.0040     3.4990    -1.0400 H     1 <1>   0.0800 
 34 H        1.2620     5.6700     1.4250 H     1 <1>   0.0800 
 35 H        0.8900     5.4880    -0.2600 H     1 <1>   0.0800 
 36 H       -4.6470     2.9360    -1.2890 H     1 <1>   0.1500 
 37 H       -4.2890     2.0520     1.2590 H     1 <1>   0.1500 
 38 H        3.2770     4.3100     1.1680 H     1 <1>   0.0800 
 39 H        5.3230     5.1400     0.6340 H     1 <1>   0.3700 
 40 H        4.8200     8.5600    -0.7190 H     1 <1>   0.1500 
 41 H        9.3360     7.2070     0.6640 H     1 <1>   0.1500 
 42 H        8.5770     3.8360     1.7740 H     1 <1>   0.0800 
 43 H        9.0430     5.4730     2.2220 H     1 <1>   0.0800 
 44 H        9.3760     4.8640     0.5900 H     1 <1>   0.0800 
 45 H        8.9590     9.4120    -0.2230 H     1 <1>   0.1500 
 46 H        7.0880    12.2120    -1.6220 H     1 <1>   0.0800 
 47 H        8.2980    10.9620    -1.8850 H     1 <1>   0.0800 
 48 H        7.9770    11.5650    -0.2470 H     1 <1>   0.0800 
@<TRIPOS>BOND
  1   1   2  2   
  2   2   3  am  
  3   2   4  1   
  4   3   5  1   
  5   3   6  1   
  6   4   7  1   
  7   4   8  2   
  8   5   9  1   
  9   5  27  1   
 10   5  28  1   
 11   6  10  1   
 12   6  29  1   
 13   6  30  1   
 14   7  11  1   
 15   8  12  1   
 16   8  31  1   
 17   9  13  1   
 18   9  32  1   
 19   9  33  1   
 20  10  13  1   
 21  10  34  1   
 22  10  35  1   
 23  11  12  2   
 24  11  36  1   
 25  12  37  1   
 26  13  14  1   
 27  13  38  1   
 28  14  15  2   
 29  14  16  am  
 30  16  17  1   
 31  16  39  1   
 32  17  18  ar  
 33  17  19  ar  
 34  18  20  1   
 35  18  21  ar  
 36  19  22  ar  
 37  19  40  1   
 38  20  23  1   
 39  21  24  ar  
 40  21  41  1   
 41  22  24  ar  
 42  22  25  1   
 43  23  42  1   
 44  23  43  1   
 45  23  44  1   
 46  24  45  1   
 47  25  26  1   
 48  26  46  1   
 49  26  47  1   
 50  26  48  1   
@<TRIPOS>SUBSTRUCTURE
  1 ****  13 GROUP 4 **** **** 0

# MOE 2024.06 (io_trps.svl 2023.06)
