@<TRIPOS>MOLECULE
3-Cyclopentyl-N-(3-m-tolyl-[1,2,4]oxadiazol-5-ylmethyl)-propionamide
46 48 1 0 0 
SMALL
USER_CHARGES


@<TRIPOS>ATOM
  1 O        0.1730     1.3640    -2.9700 O.2   1 <1>  -0.5700 
  2 C        0.3930     1.8920    -1.9090 C.2   1 <1>   0.5690 
  3 N        1.5790     1.7500    -1.2760 N.am  1 <1>  -0.7300 
  4 C       -0.6820     2.7380    -1.2590 C.3   1 <1>  -0.0990 
  5 C        2.7310     0.9880    -1.8260 C.3   1 <1>   0.3200 
  6 C       -1.3680     2.0020    -0.0930 C.3   1 <1>  -0.1600 
  7 C        4.0310     1.7630    -1.6700 C.2   1 <1>   0.2980 
  8 C       -2.4190     2.8740     0.6130 C.3   1 <1>  -0.0800 
  9 O        4.2160     2.8250    -2.4090 O.3   1 <1>  -0.0190 
 10 N        4.9770     1.4830    -0.8700 N.2   1 <1>  -0.5650 
 11 C       -3.0740     2.1580     1.7900 C.3   1 <1>  -0.1600 
 12 C       -3.6040     3.2620    -0.2700 C.3   1 <1>  -0.1600 
 13 N        5.3830     3.2580    -2.0500 N.2   1 <1>  -0.4100 
 14 C        5.8400     2.4690    -1.1420 C.2   1 <1>   0.4620 
 15 C       -4.3710     2.9270     2.0390 C.3   1 <1>  -0.1600 
 16 C       -4.7480     3.5710     0.7000 C.3   1 <1>  -0.1600 
 17 C        7.1250     2.6000    -0.4740 C.ar  1 <1>   0.0540 
 18 C        7.5530     1.6800     0.4870 C.ar  1 <1>  -0.1500 
 19 C        7.9890     3.6560    -0.7690 C.ar  1 <1>  -0.1500 
 20 C        8.7760     1.8020     1.1260 C.ar  1 <1>  -0.1430 
 21 C        9.2120     3.7880    -0.1400 C.ar  1 <1>  -0.1500 
 22 C        9.6070     2.8610     0.8070 C.ar  1 <1>  -0.1500 
 23 C        9.2110     0.7850     2.1650 C.3   1 <1>  -0.0970 
 24 H        1.7400     2.2030    -0.3750 H     1 <1>   0.3700 
 25 H       -1.4100     2.9890    -2.0090 H     1 <1>   0.0800 
 26 H       -0.2400     3.6520    -0.9090 H     1 <1>   0.0800 
 27 H        2.5730     0.7740    -2.8690 H     1 <1>   0.0800 
 28 H        2.8140     0.0540    -1.3000 H     1 <1>   0.0800 
 29 H       -0.6240     1.7070     0.6260 H     1 <1>   0.0800 
 30 H       -1.8320     1.1060    -0.4690 H     1 <1>   0.0800 
 31 H       -1.9550     3.7740     0.9820 H     1 <1>   0.0800 
 32 H       -2.4400     2.1460     2.6600 H     1 <1>   0.0800 
 33 H       -3.3140     1.1450     1.5140 H     1 <1>   0.0800 
 34 H       -3.8860     2.4270    -0.8890 H     1 <1>   0.0800 
 35 H       -3.3790     4.1050    -0.8990 H     1 <1>   0.0800 
 36 H       -4.1980     3.6990     2.7700 H     1 <1>   0.0800 
 37 H       -5.1470     2.2740     2.3990 H     1 <1>   0.0800 
 38 H       -5.6760     3.1730     0.3260 H     1 <1>   0.0800 
 39 H       -4.8520     4.6350     0.8250 H     1 <1>   0.0800 
 40 H        6.9110     0.8530     0.7360 H     1 <1>   0.1500 
 41 H        7.6980     4.3870    -1.5040 H     1 <1>   0.1500 
 42 H        9.8590     4.6120    -0.3870 H     1 <1>   0.1500 
 43 H       10.5610     2.9680     1.2930 H     1 <1>   0.1500 
 44 H        8.3670     0.2320     2.5360 H     1 <1>   0.0800 
 45 H        9.6840     1.2800     2.9940 H     1 <1>   0.0800 
 46 H        9.9110     0.0950     1.7270 H     1 <1>   0.0800 
@<TRIPOS>BOND
  1   1   2  2   
  2   2   3  am  
  3   2   4  1   
  4   3   5  1   
  5   3  24  1   
  6   4   6  1   
  7   4  25  1   
  8   4  26  1   
  9   5   7  1   
 10   5  27  1   
 11   5  28  1   
 12   6   8  1   
 13   6  29  1   
 14   6  30  1   
 15   7   9  1   
 16   7  10  2   
 17   8  11  1   
 18   8  12  1   
 19   8  31  1   
 20   9  13  1   
 21  10  14  1   
 22  11  15  1   
 23  11  32  1   
 24  11  33  1   
 25  12  16  1   
 26  12  34  1   
 27  12  35  1   
 28  13  14  2   
 29  14  17  1   
 30  15  16  1   
 31  15  36  1   
 32  15  37  1   
 33  16  38  1   
 34  16  39  1   
 35  17  18  ar  
 36  17  19  ar  
 37  18  20  ar  
 38  18  40  1   
 39  19  21  ar  
 40  19  41  1   
 41  20  22  ar  
 42  20  23  1   
 43  21  22  ar  
 44  21  42  1   
 45  22  43  1   
 46  23  44  1   
 47  23  45  1   
 48  23  46  1   
@<TRIPOS>SUBSTRUCTURE
  1 ****   7 GROUP 4 **** **** 0

# MOE 2024.06 (io_trps.svl 2023.06)
