@<TRIPOS>MOLECULE
2-[5-(3-Acetylamino-phenyl)-[1,3,4]oxadiazol-2-ylsulfanyl]-N-bicyclo[2.2.1]hept-
49 52 1 0 0 
SMALL
USER_CHARGES


@<TRIPOS>ATOM
  1 S        0.0480     1.2010     0.1930 S.3   1 <1>  -0.2860 
  2 C        1.8120     1.0010     0.3790 C.2   1 <1>   0.5340 
  3 C       -0.4030     2.2460     1.6660 C.3   1 <1>   0.1310 
  4 O        2.4590     0.3170    -0.4940 O.3   1 <1>  -0.2800 
  5 N        2.5340     1.4780     1.3150 N.2   1 <1>  -0.3380 
  6 C       -1.8920     2.5530     1.7170 C.2   1 <1>   0.5690 
  7 C        3.6900     0.3720    -0.0650 C.2   1 <1>   0.4250 
  8 N        3.7680     1.0660     1.0270 N.2   1 <1>  -0.3380 
  9 O       -2.2900     3.2770     2.5970 O.2   1 <1>  -0.5700 
 10 N       -2.7330     2.0180     0.7940 N.am  1 <1>  -0.7300 
 11 C        4.7600    -0.2880    -0.7830 C.ar  1 <1>   0.0530 
 12 C       -4.1960     2.2340     0.7300 C.3   1 <1>   0.2200 
 13 C        6.0730    -0.2420    -0.3170 C.ar  1 <1>  -0.1500 
 14 C        4.5240    -0.9920    -1.9660 C.ar  1 <1>  -0.1500 
 15 C       -5.0200     0.8230     0.8520 C.3   1 <1>  -0.0800 
 16 C       -4.5970     2.9260    -0.7340 C.3   1 <1>  -0.1600 
 17 C        7.1150    -0.8680    -0.9840 C.ar  1 <1>   0.1170 
 18 C        5.5530    -1.6150    -2.6490 C.ar  1 <1>  -0.1500 
 19 C       -5.4220     1.4260    -0.2750 C.3   1 <1>  -0.1600 
 20 C       -6.2250    -0.0660     0.1930 C.3   1 <1>  -0.1600 
 21 C       -5.7930     2.0330    -1.4060 C.3   1 <1>  -0.0800 
 22 N        8.4140    -0.7850    -0.4720 N.am  1 <1>  -0.5470 
 23 C        6.8440    -1.5500    -2.1620 C.ar  1 <1>  -0.1500 
 24 C       -6.6300     0.6330    -1.2730 C.3   1 <1>  -0.1600 
 25 C        9.3340    -1.7520    -0.2200 C.2   1 <1>   0.5690 
 26 O       10.4240    -1.4500     0.1890 O.2   1 <1>  -0.5700 
 27 C        9.0090    -3.2140    -0.4240 C.3   1 <1>  -0.1790 
 28 H        0.1590     3.1580     1.5940 H     1 <1>   0.0800 
 29 H       -0.1070     1.7050     2.5450 H     1 <1>   0.0800 
 30 H       -2.3470     1.4230     0.0580 H     1 <1>   0.3700 
 31 H       -4.4960     2.8920     1.5330 H     1 <1>   0.0800 
 32 H        6.2890     0.2890     0.5930 H     1 <1>   0.1500 
 33 H        3.5250    -1.0540    -2.3610 H     1 <1>   0.1500 
 34 H       -4.2180     0.0970     0.8580 H     1 <1>   0.0800 
 35 H       -3.7410     2.9540    -1.3900 H     1 <1>   0.0800 
 36 H       -4.9240     3.9420    -0.5780 H     1 <1>   0.0800 
 37 H        5.3480    -2.1480    -3.5620 H     1 <1>   0.1500 
 38 H       -4.5900     0.8380    -0.8680 H     1 <1>   0.0800 
 39 H       -6.2430     2.0250     0.3200 H     1 <1>   0.0800 
 40 H       -7.0820    -0.0740     0.8510 H     1 <1>   0.0800 
 41 H       -5.9180    -1.0900     0.0500 H     1 <1>   0.0800 
 42 H       -6.6010     2.7520    -1.4230 H     1 <1>   0.0800 
 43 H        8.7350     0.1400    -0.1820 H     1 <1>   0.3700 
 44 H        7.6430    -2.0230    -2.7030 H     1 <1>   0.1500 
 45 H       -7.6940     0.8110    -1.3250 H     1 <1>   0.0800 
 46 H       -6.3740    -0.0300    -2.0860 H     1 <1>   0.0800 
 47 H        7.9930    -3.4150    -0.1420 H     1 <1>   0.0800 
 48 H        9.6610    -3.8130     0.1850 H     1 <1>   0.0800 
 49 H        9.1590    -3.4770    -1.4530 H     1 <1>   0.0800 
@<TRIPOS>BOND
  1   1   2  1   
  2   1   3  1   
  3   2   4  1   
  4   2   5  2   
  5   3   6  1   
  6   3  28  1   
  7   3  29  1   
  8   4   7  1   
  9   5   8  1   
 10   6   9  2   
 11   6  10  am  
 12   7   8  2   
 13   7  11  1   
 14  10  12  1   
 15  10  30  1   
 16  11  13  ar  
 17  11  14  ar  
 18  12  15  1   
 19  12  16  1   
 20  12  31  1   
 21  13  17  ar  
 22  13  32  1   
 23  14  18  ar  
 24  14  33  1   
 25  15  19  1   
 26  15  20  1   
 27  15  34  1   
 28  16  21  1   
 29  16  35  1   
 30  16  36  1   
 31  17  22  1   
 32  17  23  ar  
 33  18  23  ar  
 34  18  37  1   
 35  19  21  1   
 36  19  38  1   
 37  19  39  1   
 38  20  24  1   
 39  20  40  1   
 40  20  41  1   
 41  21  24  1   
 42  21  42  1   
 43  22  25  am  
 44  22  43  1   
 45  23  44  1   
 46  24  45  1   
 47  24  46  1   
 48  25  26  2   
 49  25  27  1   
 50  27  47  1   
 51  27  48  1   
 52  27  49  1   
@<TRIPOS>SUBSTRUCTURE
  1 ****   2 GROUP 4 **** **** 0

# MOE 2024.06 (io_trps.svl 2023.06)
