@<TRIPOS>MOLECULE
5-Ethyl-7-methyl-2-(2-methyl-1H-indol-3-yl)-1,3-diaza-tricyclo[3.3.1.1*3,7*]deca
50 54 1 0 0 
SMALL
USER_CHARGES


@<TRIPOS>ATOM
  1 O        0.8320     0.1700     0.8930 O.2   1 <1>  -0.5700 
  2 C        1.1920    -0.9230     0.5780 C.2   1 <1>   0.4480 
  3 C        0.8490    -1.5630    -0.7700 C.3   1 <1>   0.0610 
  4 C        2.1440    -1.7540     1.4400 C.3   1 <1>   0.0610 
  5 C        2.1900    -1.6680    -1.5090 C.3   1 <1>   0.3430 
  6 C        0.3650    -3.0020    -0.5200 C.3   1 <1>   0.1100 
  7 C       -0.1600    -0.7560    -1.6290 C.3   1 <1>  -0.1600 
  8 C        3.4380    -1.8710     0.6320 C.3   1 <1>   0.3430 
  9 C        1.5800    -3.1730     1.5690 C.3   1 <1>   0.1100 
 10 C        2.4130    -1.1470     2.8320 C.3   1 <1>  -0.2400 
 11 N        3.1540    -2.4930    -0.7090 N.4   1 <1>  -0.9590 
 12 N        1.4030    -3.7440     0.2170 N.3   1 <1>  -0.8100 
 13 C       -1.5840    -0.6890    -1.0550 C.3   1 <1>  -0.2400 
 14 C        2.6540    -3.8740    -0.5490 C.3   1 <1>   0.8740 
 15 C        3.7260    -4.7500     0.1120 C.2   1 <1>  -0.1810 
 16 C        3.3960    -5.9070     0.8720 C.ar  1 <1>   0.0000 
 17 C        5.0920    -4.6550     0.0980 C.2   1 <1>  -0.3320 
 18 C        4.5960    -6.4330     1.3340 C.ar  1 <1>  -0.1520 
 19 C        2.2070    -6.5730     1.2060 C.ar  1 <1>  -0.1500 
 20 N        5.6170    -5.6640     0.8590 N.pl3 1 <1>   0.0330 
 21 C        6.0730    -3.7140    -0.5910 C.3   1 <1>  -0.0600 
 22 C        4.6400    -7.5760     2.1340 C.ar  1 <1>  -0.1500 
 23 C        2.2440    -7.7010     1.9920 C.ar  1 <1>  -0.1500 
 24 C        3.4620    -8.2030     2.4610 C.ar  1 <1>  -0.1500 
 25 H        2.0320    -2.1200    -2.4740 H     1 <1>   0.0800 
 26 H        2.5900    -0.6780    -1.6600 H     1 <1>   0.0800 
 27 H        0.1530    -3.4990    -1.4530 H     1 <1>   0.0800 
 28 H       -0.5440    -2.9970     0.0600 H     1 <1>   0.0800 
 29 H       -0.2200    -1.1840    -2.6160 H     1 <1>   0.0800 
 30 H        0.2030     0.2530    -1.7400 H     1 <1>   0.0800 
 31 H        4.1420    -2.4780     1.1780 H     1 <1>   0.0800 
 32 H        3.8660    -0.8900     0.5020 H     1 <1>   0.0800 
 33 H        2.2460    -3.7920     2.1490 H     1 <1>   0.0800 
 34 H        0.6320    -3.1520     2.0830 H     1 <1>   0.0800 
 35 H        3.0930    -1.7600     3.3980 H     1 <1>   0.0800 
 36 H        1.4920    -1.0630     3.3840 H     1 <1>   0.0800 
 37 H        2.8330    -0.1590     2.7410 H     1 <1>   0.0800 
 38 H        4.0380    -2.6150    -1.2050 H     1 <1>   0.4500 
 39 H       -2.0500    -1.6580    -1.0360 H     1 <1>   0.0800 
 40 H       -2.1910    -0.0460    -1.6690 H     1 <1>   0.0800 
 41 H       -1.5820    -0.2830    -0.0580 H     1 <1>   0.0800 
 42 H        2.4240    -4.3010    -1.5120 H     1 <1>   0.0800 
 43 H        1.2630    -6.2070     0.8480 H     1 <1>   0.1500 
 44 H        6.6110    -5.8600     1.0260 H     1 <1>   0.2700 
 45 H        6.4260    -2.9680     0.1010 H     1 <1>   0.0800 
 46 H        5.6440    -3.2350    -1.4490 H     1 <1>   0.0800 
 47 H        6.9260    -4.2720    -0.9400 H     1 <1>   0.0800 
 48 H        5.5830    -7.9590     2.4840 H     1 <1>   0.1500 
 49 H        1.3340    -8.2120     2.2540 H     1 <1>   0.1500 
 50 H        3.4650    -9.0860     3.0760 H     1 <1>   0.1500 
@<TRIPOS>BOND
  1   1   2  2   
  2   2   3  1   
  3   2   4  1   
  4   3   5  1   
  5   3   6  1   
  6   3   7  1   
  7   4   8  1   
  8   4   9  1   
  9   4  10  1   
 10   5  11  1   
 11   5  25  1   
 12   5  26  1   
 13   6  12  1   
 14   6  27  1   
 15   6  28  1   
 16   7  13  1   
 17   7  29  1   
 18   7  30  1   
 19   8  11  1   
 20   8  31  1   
 21   8  32  1   
 22   9  12  1   
 23   9  33  1   
 24   9  34  1   
 25  10  35  1   
 26  10  36  1   
 27  10  37  1   
 28  11  14  1   
 29  11  38  1   
 30  12  14  1   
 31  13  39  1   
 32  13  40  1   
 33  13  41  1   
 34  14  15  1   
 35  14  42  1   
 36  15  16  1   
 37  15  17  2   
 38  16  18  ar  
 39  16  19  ar  
 40  17  20  1   
 41  17  21  1   
 42  18  20  1   
 43  18  22  ar  
 44  19  23  ar  
 45  19  43  1   
 46  20  44  1   
 47  21  45  1   
 48  21  46  1   
 49  21  47  1   
 50  22  24  ar  
 51  22  48  1   
 52  23  24  ar  
 53  23  49  1   
 54  24  50  1   
@<TRIPOS>SUBSTRUCTURE
  1 ****  14 GROUP 4 **** **** 0

# MOE 2024.06 (io_trps.svl 2023.06)
