@<TRIPOS>MOLECULE
1-(Furan-2-carbonyl)-piperidine-4-carboxylic acid [2-(morpholine-4-carbonyl)-phe
55 58 1 0 0 
SMALL
USER_CHARGES


@<TRIPOS>ATOM
  1 O       -2.2130     1.4200    -2.3050 O.2   1 <1>  -0.5700 
  2 C       -1.0630     1.4500    -1.9010 C.2   1 <1>   0.5440 
  3 N       -0.3810     0.2620    -1.7480 N.am  1 <1>  -0.6600 
  4 C       -0.5000     2.7240    -1.5060 C.ar  1 <1>   0.0860 
  5 C       -1.0190    -1.0640    -2.0410 C.3   1 <1>   0.1400 
  6 C        0.9170     0.1290    -1.0190 C.3   1 <1>   0.1400 
  7 C       -1.1030     3.4490    -0.4680 C.ar  1 <1>   0.1170 
  8 C        0.6400     3.2480    -2.1170 C.ar  1 <1>  -0.1500 
  9 C       -1.0410    -1.9510    -0.7850 C.3   1 <1>   0.1200 
 10 C        0.7700    -0.8180     0.1830 C.3   1 <1>   0.1200 
 11 N       -2.2640     2.9240     0.1080 N.am  1 <1>  -0.5470 
 12 C       -0.5410     4.6520    -0.0530 C.ar  1 <1>  -0.1500 
 13 C        1.1850     4.4470    -1.7000 C.ar  1 <1>  -0.1500 
 14 O        0.2400    -2.0470    -0.2220 O.3   1 <1>  -0.5600 
 15 C       -2.8320     3.0220     1.3430 C.2   1 <1>   0.5690 
 16 C        0.5950     5.1480    -0.6620 C.ar  1 <1>  -0.1500 
 17 O       -2.4940     3.8260     2.1750 O.2   1 <1>  -0.5700 
 18 C       -3.9170     2.0030     1.6830 C.3   1 <1>  -0.0190 
 19 C       -3.2760     0.6170     1.9080 C.3   1 <1>  -0.1600 
 20 C       -5.0210     1.9310     0.6010 C.3   1 <1>  -0.1600 
 21 C       -4.3230    -0.4680     2.1570 C.3   1 <1>   0.1400 
 22 C       -6.0280     0.8100     0.8750 C.3   1 <1>   0.1400 
 23 N       -5.2880    -0.4710     1.0270 N.am  1 <1>  -0.6600 
 24 C       -5.2150    -1.4210     0.0220 C.2   1 <1>   0.7150 
 25 O       -4.2110    -2.1120    -0.0470 O.2   1 <1>  -0.5700 
 26 C       -6.2940    -1.6120    -0.9250 C.2   1 <1>   0.0550 
 27 O       -6.0450    -1.9030    -2.2000 O.3   1 <1>  -0.2800 
 28 C       -7.6470    -1.5550    -0.7600 C.2   1 <1>  -0.1500 
 29 C       -7.1840    -2.0270    -2.8410 C.2   1 <1>  -0.0100 
 30 C       -8.2220    -1.8220    -2.0030 C.2   1 <1>  -0.1500 
 31 H       -0.4600    -1.5610    -2.8140 H     1 <1>   0.0800 
 32 H       -2.0280    -0.9410    -2.3960 H     1 <1>   0.0800 
 33 H        1.2650     1.0820    -0.6650 H     1 <1>   0.0800 
 34 H        1.6590    -0.2680    -1.6900 H     1 <1>   0.0800 
 35 H        1.0950     2.7030    -2.9260 H     1 <1>   0.1500 
 36 H       -1.3710    -2.9430    -1.0360 H     1 <1>   0.0800 
 37 H       -1.7130    -1.5460    -0.0490 H     1 <1>   0.0800 
 38 H        0.1210    -0.3900     0.9270 H     1 <1>   0.0800 
 39 H        1.7300    -1.0070     0.6280 H     1 <1>   0.0800 
 40 H       -2.7080     2.2210    -0.4980 H     1 <1>   0.3700 
 41 H       -1.0000     5.2050     0.7470 H     1 <1>   0.1500 
 42 H        2.0660     4.8400    -2.1790 H     1 <1>   0.1500 
 43 H        1.0180     6.0820    -0.3320 H     1 <1>   0.1500 
 44 H       -4.3760     2.3130     2.6060 H     1 <1>   0.0800 
 45 H       -2.6080     0.6640     2.7500 H     1 <1>   0.0800 
 46 H       -2.6950     0.3330     1.0480 H     1 <1>   0.0800 
 47 H       -4.5930     1.7510    -0.3700 H     1 <1>   0.0800 
 48 H       -5.5410     2.8720     0.5560 H     1 <1>   0.0800 
 49 H       -4.8520    -0.2720     3.0740 H     1 <1>   0.0800 
 50 H       -3.8440    -1.4290     2.2490 H     1 <1>   0.0800 
 51 H       -6.7290     0.7600     0.0600 H     1 <1>   0.0800 
 52 H       -6.5750     1.0140     1.7790 H     1 <1>   0.0800 
 53 H       -8.1890    -1.3540     0.1470 H     1 <1>   0.1500 
 54 H       -7.1680    -2.2630    -3.8910 H     1 <1>   0.1500 
 55 H       -9.2750    -1.8540    -2.2200 H     1 <1>   0.1500 
@<TRIPOS>BOND
  1   1   2  2   
  2   2   3  am  
  3   2   4  1   
  4   3   5  1   
  5   3   6  1   
  6   4   7  ar  
  7   4   8  ar  
  8   5   9  1   
  9   5  31  1   
 10   5  32  1   
 11   6  10  1   
 12   6  33  1   
 13   6  34  1   
 14   7  11  1   
 15   7  12  ar  
 16   8  13  ar  
 17   8  35  1   
 18   9  14  1   
 19   9  36  1   
 20   9  37  1   
 21  10  14  1   
 22  10  38  1   
 23  10  39  1   
 24  11  15  am  
 25  11  40  1   
 26  12  16  ar  
 27  12  41  1   
 28  13  16  ar  
 29  13  42  1   
 30  15  17  2   
 31  15  18  1   
 32  16  43  1   
 33  18  19  1   
 34  18  20  1   
 35  18  44  1   
 36  19  21  1   
 37  19  45  1   
 38  19  46  1   
 39  20  22  1   
 40  20  47  1   
 41  20  48  1   
 42  21  23  1   
 43  21  49  1   
 44  21  50  1   
 45  22  23  1   
 46  22  51  1   
 47  22  52  1   
 48  23  24  am  
 49  24  25  2   
 50  24  26  1   
 51  26  27  1   
 52  26  28  2   
 53  27  29  1   
 54  28  30  1   
 55  28  53  1   
 56  29  30  2   
 57  29  54  1   
 58  30  55  1   
@<TRIPOS>SUBSTRUCTURE
  1 ****   1 GROUP 4 **** **** 0

# MOE 2024.06 (io_trps.svl 2023.06)
