@<TRIPOS>MOLECULE
[5-(4-Chloro-2-methyl-phenoxymethyl)-[1,3,4]oxadiazol-2-ylsulfanyl]-acetic acid
34 35 1 0 0 
SMALL
USER_CHARGES


@<TRIPOS>ATOM
  1 CL      -0.1810     0.3100     1.4840 Cl    1 <1>  -0.1770 
  2 C        0.2030     1.9810     1.1550 C.ar  1 <1>   0.1770 
  3 C        0.2690     2.4170    -0.1550 C.ar  1 <1>  -0.1500 
  4 C        0.4340     2.8420     2.2100 C.ar  1 <1>  -0.1500 
  5 C        0.5730     3.7430    -0.4230 C.ar  1 <1>  -0.1440 
  6 C        0.7380     4.1670     1.9500 C.ar  1 <1>  -0.1500 
  7 C        0.8090     4.6230     0.6320 C.ar  1 <1>   0.0830 
  8 C        0.6460     4.2220    -1.8660 C.3   1 <1>  -0.0960 
  9 O        1.1020     5.9110     0.3130 O.3   1 <1>  -0.3630 
 10 C        1.3740     6.8820     1.3050 C.3   1 <1>   0.3000 
 11 C        1.6560     8.2250     0.6540 C.2   1 <1>   0.2980 
 12 O        2.6530     8.3610    -0.1670 O.3   1 <1>  -0.2800 
 13 N        1.0080     9.3190     0.8290 N.2   1 <1>  -0.3380 
 14 C        2.5750     9.6060    -0.4910 C.2   1 <1>   0.5340 
 15 N        1.6140    10.2350     0.0680 N.2   1 <1>  -0.3380 
 16 S        3.7660    10.2720    -1.6480 S.3   1 <1>  -0.2860 
 17 C        3.3790    12.0870    -1.6690 C.3   1 <1>   0.1310 
 18 C        4.1270    12.8070    -0.5620 C.2   1 <1>   0.6590 
 19 O        4.8570    13.7340    -0.8020 O.2   1 <1>  -0.5700 
 20 O        3.9270    12.3710     0.6770 O.3   1 <1>  -0.4300 
 21 C        4.5590    12.9670     1.7900 C.3   1 <1>   0.0400 
 22 H        0.0820     1.7170    -0.9490 H     1 <1>   0.1500 
 23 H        0.3760     2.4740     3.2190 H     1 <1>   0.1500 
 24 H        0.9140     4.8180     2.7850 H     1 <1>   0.1500 
 25 H        0.4380     3.4230    -2.5540 H     1 <1>   0.0800 
 26 H        1.6280     4.6070    -2.0740 H     1 <1>   0.0800 
 27 H       -0.0720     5.0070    -2.0260 H     1 <1>   0.0800 
 28 H        2.2310     6.5630     1.8670 H     1 <1>   0.0800 
 29 H        0.5140     6.9630     1.9450 H     1 <1>   0.0800 
 30 H        2.3190    12.2040    -1.5520 H     1 <1>   0.0800 
 31 H        3.6870    12.4630    -2.6260 H     1 <1>   0.0800 
 32 H        4.2390    12.4520     2.6780 H     1 <1>   0.0800 
 33 H        4.2730    14.0030     1.8390 H     1 <1>   0.0800 
 34 H        5.6250    12.8800     1.6720 H     1 <1>   0.0800 
@<TRIPOS>BOND
  1   1   2  1   
  2   2   3  ar  
  3   2   4  ar  
  4   3   5  ar  
  5   3  22  1   
  6   4   6  ar  
  7   4  23  1   
  8   5   7  ar  
  9   5   8  1   
 10   6   7  ar  
 11   6  24  1   
 12   7   9  1   
 13   8  25  1   
 14   8  26  1   
 15   8  27  1   
 16   9  10  1   
 17  10  11  1   
 18  10  28  1   
 19  10  29  1   
 20  11  12  1   
 21  11  13  2   
 22  12  14  1   
 23  13  15  1   
 24  14  15  2   
 25  14  16  1   
 26  16  17  1   
 27  17  18  1   
 28  17  30  1   
 29  17  31  1   
 30  18  19  2   
 31  18  20  1   
 32  20  21  1   
 33  21  32  1   
 34  21  33  1   
 35  21  34  1   
@<TRIPOS>SUBSTRUCTURE
  1 ****  11 GROUP 4 **** **** 0

# MOE 2024.06 (io_trps.svl 2023.06)
