@<TRIPOS>MOLECULE
{2-[4-(Morpholine-4-sulfonyl)-phenyl]-ethyl}-carbamic acid ethyl ester
45 46 1 0 0 
SMALL
USER_CHARGES


@<TRIPOS>ATOM
  1 S       -0.2530     0.0590    -1.8080 S.o2  1 <1>   1.4470 
  2 O        0.6030     1.1270    -2.2780 O.2   1 <1>  -0.6500 
  3 O       -0.5810    -1.0460    -2.6840 O.2   1 <1>  -0.6500 
  4 N        0.5080    -0.6100    -0.4480 N.am  1 <1>  -0.8490 
  5 C       -1.7890     0.7780    -1.1530 C.ar  1 <1>  -0.0090 
  6 C       -0.2220    -1.7270     0.1670 C.3   1 <1>   0.1960 
  7 C        0.9300     0.3750     0.5570 C.3   1 <1>   0.1960 
  8 C       -1.8330     2.0910    -0.6970 C.ar  1 <1>  -0.1500 
  9 C       -2.9540     0.0250    -1.0620 C.ar  1 <1>  -0.1500 
 10 C        0.5780    -2.3300     1.3360 C.3   1 <1>   0.1200 
 11 C        1.6860    -0.3050     1.7120 C.3   1 <1>   0.1200 
 12 C       -2.9880     2.6300    -0.1590 C.ar  1 <1>  -0.1500 
 13 C       -4.1130     0.5560    -0.5240 C.ar  1 <1>  -0.1500 
 14 O        0.9150    -1.3360     2.2620 O.3   1 <1>  -0.5600 
 15 C       -4.1360     1.8620    -0.0650 C.ar  1 <1>  -0.1430 
 16 C       -5.4150     2.4350     0.5260 C.3   1 <1>  -0.0170 
 17 C       -6.3620     2.8850    -0.5870 C.3   1 <1>   0.1400 
 18 N       -7.6480     3.3330    -0.0080 N.am  1 <1>  -0.7300 
 19 C       -8.7020     2.5270     0.2410 C.2   1 <1>   0.7800 
 20 O       -8.6700     1.3260     0.0610 O.2   1 <1>  -0.5700 
 21 O       -9.7920     3.1220     0.7120 O.3   1 <1>  -0.4300 
 22 C      -10.9460     2.3690     1.0090 C.3   1 <1>   0.1200 
 23 C      -12.0170     3.3260     1.5240 C.3   1 <1>  -0.2400 
 24 H       -0.3960    -2.4940    -0.5690 H     1 <1>   0.0800 
 25 H       -1.1740    -1.3920     0.5390 H     1 <1>   0.0800 
 26 H        0.0740     0.8880     0.9600 H     1 <1>   0.0800 
 27 H        1.5770     1.1050     0.0980 H     1 <1>   0.0800 
 28 H       -0.9490     2.7040    -0.7680 H     1 <1>   0.1500 
 29 H       -2.9580    -0.9910    -1.4200 H     1 <1>   0.1500 
 30 H        1.4830    -2.7880     0.9760 H     1 <1>   0.0800 
 31 H       -0.0080    -3.0720     1.8470 H     1 <1>   0.0800 
 32 H        1.8940     0.4050     2.4920 H     1 <1>   0.0800 
 33 H        2.6160    -0.7180     1.3610 H     1 <1>   0.0800 
 34 H       -2.9880     3.6500     0.1860 H     1 <1>   0.1500 
 35 H       -5.0010    -0.0520    -0.4650 H     1 <1>   0.1500 
 36 H       -5.1850     3.2690     1.1650 H     1 <1>   0.0800 
 37 H       -5.8970     1.6780     1.1190 H     1 <1>   0.0800 
 38 H       -6.5430     2.0600    -1.2570 H     1 <1>   0.0800 
 39 H       -5.9180     3.6870    -1.1520 H     1 <1>   0.0800 
 40 H       -7.7700     4.3260     0.1880 H     1 <1>   0.3700 
 41 H      -10.6910     1.6350     1.7550 H     1 <1>   0.0800 
 42 H      -11.2700     1.8730     0.1090 H     1 <1>   0.0800 
 43 H      -11.6740     3.8200     2.4150 H     1 <1>   0.0800 
 44 H      -12.9100     2.7760     1.7580 H     1 <1>   0.0800 
 45 H      -12.2520     4.0580     0.7720 H     1 <1>   0.0800 
@<TRIPOS>BOND
  1   1   2  2   
  2   1   3  2   
  3   1   4  am  
  4   1   5  1   
  5   4   6  1   
  6   4   7  1   
  7   5   8  ar  
  8   5   9  ar  
  9   6  10  1   
 10   6  24  1   
 11   6  25  1   
 12   7  11  1   
 13   7  26  1   
 14   7  27  1   
 15   8  12  ar  
 16   8  28  1   
 17   9  13  ar  
 18   9  29  1   
 19  10  14  1   
 20  10  30  1   
 21  10  31  1   
 22  11  14  1   
 23  11  32  1   
 24  11  33  1   
 25  12  15  ar  
 26  12  34  1   
 27  13  15  ar  
 28  13  35  1   
 29  15  16  1   
 30  16  17  1   
 31  16  36  1   
 32  16  37  1   
 33  17  18  1   
 34  17  38  1   
 35  17  39  1   
 36  18  19  am  
 37  18  40  1   
 38  19  20  2   
 39  19  21  1   
 40  21  22  1   
 41  22  23  1   
 42  22  41  1   
 43  22  42  1   
 44  23  43  1   
 45  23  44  1   
 46  23  45  1   
@<TRIPOS>SUBSTRUCTURE
  1 ****  13 GROUP 4 **** **** 0

# MOE 2024.06 (io_trps.svl 2023.06)
