@<TRIPOS>MOLECULE
1,3-Dimethyl-7-phenoxymethyl-6,7-dihydro-1H-oxazolo[2,3-f]purine-2,4-dione
40 43 1 0 0 
SMALL
USER_CHARGES


@<TRIPOS>ATOM
  1 O        1.2220    -0.0840     0.2800 O.2   1 <1>  -0.5700 
  2 C        2.1220     0.7010     0.0360 C.2   1 <1>   0.6900 
  3 N        1.8910     2.0680     0.1700 N.am  1 <1>  -0.4200 
  4 N        3.3620     0.2320    -0.3650 N.am  1 <1>  -0.4230 
  5 C        2.9070     2.9800    -0.0560 C.2   1 <1>   0.7150 
  6 C        0.5400     2.5400     0.5940 C.3   1 <1>   0.0600 
  7 C        4.3820     1.1440    -0.6080 C.2   1 <1>   0.2900 
  8 C        3.6570    -1.2150    -0.5380 C.3   1 <1>   0.0600 
  9 O        2.7370     4.1780     0.0930 O.2   1 <1>  -0.5700 
 10 C        4.1580     2.4700    -0.4590 C.2   1 <1>  -0.2370 
 11 N        5.6440     0.8670    -0.9870 N.2   1 <1>  -0.5650 
 12 N        5.3350     3.0590    -0.7670 N.pl3 1 <1>   0.0480 
 13 C        6.1500     2.0580    -1.0630 C.2   1 <1>   0.2490 
 14 C        6.0200     4.3320    -0.8690 C.3   1 <1>   0.0960 
 15 O        7.3840     2.4580    -1.3710 O.3   1 <1>  -0.3430 
 16 C        7.4660     3.8690    -1.1690 C.3   1 <1>   0.2000 
 17 C        8.4200     4.1750    -0.0040 C.3   1 <1>   0.1200 
 18 O        9.7570     3.8840    -0.3620 O.3   1 <1>  -0.3630 
 19 C       10.3990     2.7560     0.0370 C.ar  1 <1>   0.0820 
 20 C       11.7820     2.7650    -0.0600 C.ar  1 <1>  -0.1500 
 21 C        9.7580     1.6210     0.5260 C.ar  1 <1>  -0.1500 
 22 C       12.5230     1.6650     0.3340 C.ar  1 <1>  -0.1500 
 23 C       10.5000     0.5200     0.9200 C.ar  1 <1>  -0.1500 
 24 C       11.8810     0.5410     0.8270 C.ar  1 <1>  -0.1500 
 25 H       -0.2220     1.9660     0.0960 H     1 <1>   0.0800 
 26 H        0.3990     3.5780     0.3470 H     1 <1>   0.0800 
 27 H        0.4340     2.4120     1.6570 H     1 <1>   0.0800 
 28 H        2.7760    -1.8120    -0.3820 H     1 <1>   0.0800 
 29 H        4.4120    -1.5110     0.1690 H     1 <1>   0.0800 
 30 H        4.0250    -1.3880    -1.5340 H     1 <1>   0.0800 
 31 H        5.9370     4.8800     0.0520 H     1 <1>   0.0800 
 32 H        5.6120     4.9020    -1.6830 H     1 <1>   0.0800 
 33 H        7.8300     4.3230    -2.0730 H     1 <1>   0.0800 
 34 H        8.1520     3.6460     0.8920 H     1 <1>   0.0800 
 35 H        8.3900     5.2280     0.2100 H     1 <1>   0.0800 
 36 H       12.2740     3.6400    -0.4440 H     1 <1>   0.1500 
 37 H        8.6890     1.5650     0.5990 H     1 <1>   0.1500 
 38 H       13.5960     1.6820     0.2570 H     1 <1>   0.1500 
 39 H        9.9990    -0.3550     1.2950 H     1 <1>   0.1500 
 40 H       12.4540    -0.3160     1.1330 H     1 <1>   0.1500 
@<TRIPOS>BOND
  1   1   2  2   
  2   2   3  am  
  3   2   4  am  
  4   3   5  am  
  5   3   6  1   
  6   4   7  1   
  7   4   8  1   
  8   5   9  2   
  9   5  10  1   
 10   6  25  1   
 11   6  26  1   
 12   6  27  1   
 13   7  10  2   
 14   7  11  1   
 15   8  28  1   
 16   8  29  1   
 17   8  30  1   
 18  10  12  1   
 19  11  13  2   
 20  12  13  1   
 21  12  14  1   
 22  13  15  1   
 23  14  16  1   
 24  14  31  1   
 25  14  32  1   
 26  15  16  1   
 27  16  17  1   
 28  16  33  1   
 29  17  18  1   
 30  17  34  1   
 31  17  35  1   
 32  18  19  1   
 33  19  20  ar  
 34  19  21  ar  
 35  20  22  ar  
 36  20  36  1   
 37  21  23  ar  
 38  21  37  1   
 39  22  24  ar  
 40  22  38  1   
 41  23  24  ar  
 42  23  39  1   
 43  24  40  1   
@<TRIPOS>SUBSTRUCTURE
  1 ****  13 GROUP 4 **** **** 0

# MOE 2024.06 (io_trps.svl 2023.06)
