@<TRIPOS>MOLECULE
N-Adamantan-1-yl-2-[5-(2-fluoro-phenyl)-4-methyl-4H-[1,2,4]triazol-3-ylsulfanyl]
53 57 1 0 0 
SMALL
USER_CHARGES


@<TRIPOS>ATOM
  1 S        0.2050    -0.4070    -0.3850 S.3   1 <1>  -0.2860 
  2 C       -0.6400     1.1630    -0.5860 C.2   1 <1>   0.2420 
  3 C        1.7240    -0.1890    -1.4400 C.3   1 <1>   0.1310 
  4 N       -0.1680     2.1360    -1.2790 N.2   1 <1>  -0.3380 
  5 N       -1.8150     1.4280    -0.0250 N.pl3 1 <1>   0.0480 
  6 C        2.6460    -1.3970    -1.3650 C.2   1 <1>   0.5690 
  7 N       -1.0650     3.1150    -1.1840 N.2   1 <1>  -0.3380 
  8 C       -2.0530     2.6890    -0.4430 C.2   1 <1>   0.1330 
  9 C       -2.6100     0.5610     0.8710 C.3   1 <1>   0.0160 
 10 O        3.4630    -1.5390    -2.2420 O.2   1 <1>  -0.5700 
 11 N        2.5270    -2.2610    -0.3190 N.am  1 <1>  -0.7300 
 12 C       -3.2130     3.4780    -0.1030 C.ar  1 <1>   0.0530 
 13 C        3.2940    -3.4850    -0.0370 C.3   1 <1>   0.3000 
 14 C       -4.5270     3.0530    -0.3070 C.ar  1 <1>   0.1900 
 15 C       -3.0570     4.7470     0.4540 C.ar  1 <1>  -0.1500 
 16 C        4.7900    -3.1660     0.1440 C.3   1 <1>  -0.1600 
 17 C        2.7500    -4.0810     1.2750 C.3   1 <1>  -0.1600 
 18 C        3.1120    -4.5170    -1.1660 C.3   1 <1>  -0.1600 
 19 F       -4.7440     1.8810    -0.8440 F     1 <1>  -0.1900 
 20 C       -5.6310     3.8130     0.0290 C.ar  1 <1>  -0.1500 
 21 C       -4.1480     5.5270     0.7990 C.ar  1 <1>  -0.1500 
 22 C        5.5640    -4.4540     0.4880 C.3   1 <1>  -0.0800 
 23 C        3.5100    -5.3720     1.6320 C.3   1 <1>  -0.0800 
 24 C        3.8800    -5.8090    -0.8270 C.3   1 <1>  -0.0800 
 25 C       -5.4370     5.0630     0.5900 C.ar  1 <1>  -0.1500 
 26 C        5.0070    -5.0470     1.7960 C.3   1 <1>  -0.1600 
 27 C        5.3750    -5.4750    -0.6510 C.3   1 <1>  -0.1600 
 28 C        3.3350    -6.3920     0.4910 C.3   1 <1>  -0.1600 
 29 H        2.2340     0.6890    -1.0900 H     1 <1>   0.0800 
 30 H        1.3900    -0.0360    -2.4490 H     1 <1>   0.0800 
 31 H       -1.9520    -0.0160     1.4940 H     1 <1>   0.0800 
 32 H       -3.2150    -0.1010     0.2780 H     1 <1>   0.0800 
 33 H       -3.2440     1.1650     1.4940 H     1 <1>   0.0800 
 34 H        1.7770    -2.0860     0.3490 H     1 <1>   0.3700 
 35 H       -2.0600     5.1240     0.6130 H     1 <1>   0.1500 
 36 H        4.9180    -2.4440     0.9300 H     1 <1>   0.0800 
 37 H        5.1900    -2.7500    -0.7630 H     1 <1>   0.0800 
 38 H        1.7030    -4.3050     1.1680 H     1 <1>   0.0800 
 39 H        2.8650    -3.3700     2.0740 H     1 <1>   0.0800 
 40 H        3.4880    -4.1190    -2.0910 H     1 <1>   0.0800 
 41 H        2.0680    -4.7380    -1.2950 H     1 <1>   0.0800 
 42 H       -6.6210     3.4340    -0.1490 H     1 <1>   0.1500 
 43 H       -3.9950     6.5020     1.2290 H     1 <1>   0.1500 
 44 H        6.6110    -4.2290     0.6050 H     1 <1>   0.0800 
 45 H        3.1240    -5.7830     2.5500 H     1 <1>   0.0800 
 46 H        3.7580    -6.5240    -1.6220 H     1 <1>   0.0800 
 47 H       -6.2830     5.6730     0.8600 H     1 <1>   0.1500 
 48 H        5.1430    -4.3460     2.6010 H     1 <1>   0.0800 
 49 H        5.5490    -5.9420     2.0480 H     1 <1>   0.0800 
 50 H        5.9250    -6.3730    -0.4300 H     1 <1>   0.0800 
 51 H        5.7670    -5.0720    -1.5690 H     1 <1>   0.0800 
 52 H        2.2940    -6.6390     0.3770 H     1 <1>   0.0800 
 53 H        3.8600    -7.3000     0.7310 H     1 <1>   0.0800 
@<TRIPOS>BOND
  1   1   2  1   
  2   1   3  1   
  3   2   4  2   
  4   2   5  1   
  5   3   6  1   
  6   3  29  1   
  7   3  30  1   
  8   4   7  1   
  9   5   8  1   
 10   5   9  1   
 11   6  10  2   
 12   6  11  am  
 13   7   8  2   
 14   8  12  1   
 15   9  31  1   
 16   9  32  1   
 17   9  33  1   
 18  11  13  1   
 19  11  34  1   
 20  12  14  ar  
 21  12  15  ar  
 22  13  16  1   
 23  13  17  1   
 24  13  18  1   
 25  14  19  1   
 26  14  20  ar  
 27  15  21  ar  
 28  15  35  1   
 29  16  22  1   
 30  16  36  1   
 31  16  37  1   
 32  17  23  1   
 33  17  38  1   
 34  17  39  1   
 35  18  24  1   
 36  18  40  1   
 37  18  41  1   
 38  20  25  ar  
 39  20  42  1   
 40  21  25  ar  
 41  21  43  1   
 42  22  26  1   
 43  22  27  1   
 44  22  44  1   
 45  23  26  1   
 46  23  28  1   
 47  23  45  1   
 48  24  27  1   
 49  24  28  1   
 50  24  46  1   
 51  25  47  1   
 52  26  48  1   
 53  26  49  1   
 54  27  50  1   
 55  27  51  1   
 56  28  52  1   
 57  28  53  1   
@<TRIPOS>SUBSTRUCTURE
  1 ****   1 GROUP 4 **** **** 0

# MOE 2024.06 (io_trps.svl 2023.06)
