@<TRIPOS>MOLECULE
N-Cyclopropyl-2-methyl-5-(2-oxo-pyrrolidin-1-yl)-benzenesulfonamide
38 40 1 0 0 
SMALL
USER_CHARGES


@<TRIPOS>ATOM
  1 S       -0.0160    -0.7380    -0.9680 S.o2  1 <1>   1.4470 
  2 O        0.1130    -2.1700    -1.1210 O.2   1 <1>  -0.6500 
  3 O        0.3330     0.1360    -2.0670 O.2   1 <1>  -0.6500 
  4 N        1.0020    -0.3880     0.3210 N.am  1 <1>  -0.7890 
  5 C       -1.6750    -0.3370    -0.3300 C.ar  1 <1>  -0.0090 
  6 C        2.3610    -0.1130    -0.0710 C.3   1 <1>   0.1310 
  7 C       -2.0630     0.9520     0.0470 C.ar  1 <1>  -0.1430 
  8 C       -2.6100    -1.3590    -0.2050 C.ar  1 <1>  -0.1500 
  9 C        3.3020    -1.2490    -0.2640 C.3   1 <1>  -0.2000 
 10 C        3.4390    -0.3380     0.9290 C.3   1 <1>  -0.2000 
 11 C       -3.3410     1.1760     0.5340 C.ar  1 <1>  -0.1500 
 12 C       -1.1200     2.1450    -0.0670 C.3   1 <1>  -0.0970 
 13 C       -3.8950    -1.1520     0.2840 C.ar  1 <1>   0.1170 
 14 C       -4.2440     0.1390     0.6530 C.ar  1 <1>  -0.1500 
 15 N       -4.8060    -2.2200     0.4090 N.am  1 <1>  -0.4770 
 16 C       -6.1640    -2.1940     0.2490 C.2   1 <1>   0.5690 
 17 C       -4.3520    -3.5730     0.7950 C.3   1 <1>   0.1400 
 18 O       -6.8400    -1.2500    -0.0780 O.2   1 <1>  -0.5700 
 19 C       -6.7760    -3.5400     0.5320 C.3   1 <1>  -0.0990 
 20 C       -5.6300    -4.3260     1.1790 C.3   1 <1>  -0.1600 
 21 H        1.0280    -1.2600     0.8420 H     1 <1>   0.4200 
 22 H        2.4470     0.7450    -0.7210 H     1 <1>   0.1000 
 23 H       -2.3300    -2.3510    -0.5090 H     1 <1>   0.1500 
 24 H        4.0330    -1.1780    -1.0500 H     1 <1>   0.1000 
 25 H        2.9430    -2.2540    -0.1250 H     1 <1>   0.1000 
 26 H        3.1770    -0.7080     1.9040 H     1 <1>   0.1000 
 27 H        4.2710     0.3440     0.9530 H     1 <1>   0.1000 
 28 H       -3.6490     2.1660     0.8250 H     1 <1>   0.1500 
 29 H       -0.2550     2.0030     0.5560 H     1 <1>   0.0800 
 30 H       -1.6060     3.0520     0.2440 H     1 <1>   0.0800 
 31 H       -0.8020     2.2750    -1.0860 H     1 <1>   0.0800 
 32 H       -5.2300     0.3370     1.0330 H     1 <1>   0.1500 
 33 H       -3.6620    -3.5220     1.6200 H     1 <1>   0.0800 
 34 H       -3.8800    -4.0420    -0.0510 H     1 <1>   0.0800 
 35 H       -7.0790    -3.9850    -0.3980 H     1 <1>   0.0800 
 36 H       -7.6210    -3.4440     1.1880 H     1 <1>   0.0800 
 37 H       -5.7370    -4.3070     2.2500 H     1 <1>   0.0800 
 38 H       -5.6020    -5.3510     0.8510 H     1 <1>   0.0800 
@<TRIPOS>BOND
  1   1   2  2   
  2   1   3  2   
  3   1   4  am  
  4   1   5  1   
  5   4   6  1   
  6   4  21  1   
  7   5   7  ar  
  8   5   8  ar  
  9   6   9  1   
 10   6  10  1   
 11   6  22  1   
 12   7  11  ar  
 13   7  12  1   
 14   8  13  ar  
 15   8  23  1   
 16   9  10  1   
 17   9  24  1   
 18   9  25  1   
 19  10  26  1   
 20  10  27  1   
 21  11  14  ar  
 22  11  28  1   
 23  12  29  1   
 24  12  30  1   
 25  12  31  1   
 26  13  14  ar  
 27  13  15  1   
 28  14  32  1   
 29  15  16  am  
 30  15  17  1   
 31  16  18  2   
 32  16  19  1   
 33  17  20  1   
 34  17  33  1   
 35  17  34  1   
 36  19  20  1   
 37  19  35  1   
 38  19  36  1   
 39  20  37  1   
 40  20  38  1   
@<TRIPOS>SUBSTRUCTURE
  1 ****   8 GROUP 4 **** **** 0

# MOE 2024.06 (io_trps.svl 2023.06)
