@<TRIPOS>MOLECULE
8-(2,5-Dimethoxy-phenyl)-1,3-dimethyl-7,8-dihydro-1H,6H-imidazo[2,1-f]purine-2,4
46 49 1 0 0 
SMALL
USER_CHARGES


@<TRIPOS>ATOM
  1 O        1.3230     3.0850    -2.4250 O.2   1 <1>  -0.5750 
  2 C        2.2000     2.7380    -1.6610 C.2   1 <1>   0.6860 
  3 N        2.6140     3.5930    -0.6420 N.am  1 <1>  -0.4260 
  4 N        2.7880     1.4870    -1.8070 N.am  1 <1>  -0.4420 
  5 C        3.6100     3.2190     0.2510 C.2   1 <1>   0.6990 
  6 C        1.9490     4.9270    -0.5070 C.3   1 <1>   0.0510 
  7 C        3.7950     1.1350    -0.9310 C.2   1 <1>   0.4200 
  8 C        2.3520     0.5560    -2.8900 C.3   1 <1>   0.0510 
  9 O        3.9570     3.9570     1.1590 O.2   1 <1>  -0.5750 
 10 C        4.2190     1.9390     0.0720 C.2   1 <1>   0.2700 
 11 N        4.5300    -0.0180    -0.9090 N.pl3 1 <1>  -0.7040 
 12 N        5.2440     1.2330     0.7100 N.pl3 1 <1>  -0.7680 
 13 C        5.3960     0.0890     0.0890 C.cat 1 <1>   1.0690 
 14 C        6.2100     1.4040     1.8050 C.3   1 <1>   0.3470 
 15 N        6.3650    -0.6770     0.5980 N.pl3 1 <1>  -0.5800 
 16 C        6.9890     0.0680     1.7390 C.3   1 <1>   0.1600 
 17 C        6.7860    -1.9620     0.1860 C.ar  1 <1>   0.3040 
 18 C        6.9310    -2.3130    -1.1680 C.ar  1 <1>   0.0740 
 19 C        7.0660    -2.9170     1.1520 C.ar  1 <1>  -0.1580 
 20 O        6.6630    -1.3730    -2.1240 O.3   1 <1>  -0.3690 
 21 C        7.3430    -3.5970    -1.5110 C.ar  1 <1>  -0.1580 
 22 C        7.4810    -4.1900     0.8100 C.ar  1 <1>   0.0740 
 23 C        7.2460    -1.4760    -3.4100 C.3   1 <1>   0.0310 
 24 C        7.6180    -4.5310    -0.5290 C.ar  1 <1>  -0.1580 
 25 O        7.7280    -5.0390     1.8390 O.3   1 <1>  -0.3690 
 26 C        8.1540    -6.3640     1.6040 C.3   1 <1>   0.0310 
 27 H        0.9920     4.8040    -0.0310 H     1 <1>   0.0710 
 28 H        1.8000     5.3650    -1.4790 H     1 <1>   0.0710 
 29 H        2.5470     5.6030     0.0780 H     1 <1>   0.0710 
 30 H        1.3390     0.7720    -3.1880 H     1 <1>   0.0710 
 31 H        2.3880    -0.4620    -2.5470 H     1 <1>   0.0710 
 32 H        2.9940     0.6710    -3.7460 H     1 <1>   0.0710 
 33 H        4.5730    -0.7820    -1.5830 H     1 <1>   0.4440 
 34 H        5.7050     1.5230     2.7490 H     1 <1>   0.0710 
 35 H        6.8540     2.2480     1.6220 H     1 <1>   0.0710 
 36 H        6.8780    -0.4750     2.6610 H     1 <1>   0.0710 
 37 H        8.0350     0.2430     1.5480 H     1 <1>   0.0710 
 38 H        6.9610    -2.6920     2.1960 H     1 <1>   0.1420 
 39 H        7.4540    -3.8980    -2.5370 H     1 <1>   0.1420 
 40 H        7.0750    -0.5520    -3.9340 H     1 <1>   0.0710 
 41 H        6.7820    -2.2860    -3.9450 H     1 <1>   0.0710 
 42 H        8.3040    -1.6430    -3.3060 H     1 <1>   0.0710 
 43 H        7.9360    -5.5140    -0.8250 H     1 <1>   0.1420 
 44 H        8.2860    -6.8450     2.5560 H     1 <1>   0.0710 
 45 H        9.0890    -6.3420     1.0730 H     1 <1>   0.0710 
 46 H        7.3990    -6.8790     1.0370 H     1 <1>   0.0710 
@<TRIPOS>BOND
  1   1   2  2   
  2   2   3  am  
  3   2   4  am  
  4   3   5  am  
  5   3   6  1   
  6   4   7  1   
  7   4   8  1   
  8   5   9  2   
  9   5  10  1   
 10   6  27  1   
 11   6  28  1   
 12   6  29  1   
 13   7  10  2   
 14   7  11  1   
 15   8  30  1   
 16   8  31  1   
 17   8  32  1   
 18  10  12  1   
 19  11  13  ar  
 20  11  33  1   
 21  12  13  ar  
 22  12  14  1   
 23  13  15  ar  
 24  14  16  1   
 25  14  34  1   
 26  14  35  1   
 27  15  16  1   
 28  15  17  1   
 29  16  36  1   
 30  16  37  1   
 31  17  18  ar  
 32  17  19  ar  
 33  18  20  1   
 34  18  21  ar  
 35  19  22  ar  
 36  19  38  1   
 37  20  23  1   
 38  21  24  ar  
 39  21  39  1   
 40  22  24  ar  
 41  22  25  1   
 42  23  40  1   
 43  23  41  1   
 44  23  42  1   
 45  24  43  1   
 46  25  26  1   
 47  26  44  1   
 48  26  45  1   
 49  26  46  1   
@<TRIPOS>SUBSTRUCTURE
  1 ****  13 GROUP 4 **** **** 0

# MOE 2024.06 (io_trps.svl 2023.06)
