@<TRIPOS>MOLECULE
2-(1,1-Dioxo-tetrahydro-1lambda*6*-thiophen-3-ylsulfanylmethyl)-5-phenyl-[1,3,4]
34 36 1 0 0 
SMALL
USER_CHARGES


@<TRIPOS>ATOM
  1 S        0.8080     0.0500    -0.4870 S.o2  1 <1>   1.0900 
  2 O        1.1410    -0.4470    -1.8000 O.2   1 <1>  -0.6500 
  3 O        0.7130    -0.8170     0.6640 O.2   1 <1>  -0.6500 
  4 C        1.9060     1.3800    -0.0680 C.3   1 <1>  -0.0550 
  5 C       -0.6650     1.0640    -0.5530 C.3   1 <1>  -0.0550 
  6 C        1.0270     2.4200     0.6120 C.3   1 <1>   0.1500 
  7 C       -0.2780     2.5060    -0.1870 C.3   1 <1>  -0.1600 
  8 S        1.8530     4.0280     0.5600 S.3   1 <1>  -0.4600 
  9 C        3.0660     3.9450     1.9220 C.3   1 <1>   0.2500 
 10 C        4.1040     5.0400     1.7610 C.2   1 <1>   0.2980 
 11 O        4.8300     5.0730     0.6810 O.3   1 <1>  -0.2800 
 12 N        4.3600     5.9520     2.6130 N.2   1 <1>  -0.3380 
 13 C        5.5740     6.1260     0.9310 C.2   1 <1>   0.4250 
 14 N        5.3210     6.6650     2.0760 N.2   1 <1>  -0.3380 
 15 C        6.5590     6.5610    -0.0380 C.ar  1 <1>   0.0530 
 16 C        7.4210     7.6250     0.2360 C.ar  1 <1>  -0.1500 
 17 C        6.6910     5.9390    -1.2820 C.ar  1 <1>  -0.1500 
 18 C        8.3670     8.0470    -0.6800 C.ar  1 <1>  -0.1500 
 19 C        7.6350     6.3560    -2.2030 C.ar  1 <1>  -0.1500 
 20 C        8.4760     7.4120    -1.9030 C.ar  1 <1>  -0.1500 
 21 H        2.3200     1.7990    -0.9660 H     1 <1>   0.0800 
 22 H        2.6990     1.0470     0.5720 H     1 <1>   0.0800 
 23 H       -1.3810     0.6920     0.1560 H     1 <1>   0.0800 
 24 H       -1.1090     1.0330    -1.5310 H     1 <1>   0.0800 
 25 H        0.8340     2.1650     1.6410 H     1 <1>   0.0800 
 26 H       -1.0540     2.9940     0.3780 H     1 <1>   0.0800 
 27 H       -0.1050     3.0620    -1.0940 H     1 <1>   0.0800 
 28 H        3.5360     2.9800     1.8860 H     1 <1>   0.0800 
 29 H        2.5250     4.0630     2.8440 H     1 <1>   0.0800 
 30 H        7.3480     8.1310     1.1840 H     1 <1>   0.1500 
 31 H        6.0450     5.1170    -1.5370 H     1 <1>   0.1500 
 32 H        9.0180     8.8700    -0.4420 H     1 <1>   0.1500 
 33 H        7.7160     5.8600    -3.1550 H     1 <1>   0.1500 
 34 H        9.2120     7.7380    -2.6190 H     1 <1>   0.1500 
@<TRIPOS>BOND
  1   1   2  2   
  2   1   3  2   
  3   1   4  1   
  4   1   5  1   
  5   4   6  1   
  6   4  21  1   
  7   4  22  1   
  8   5   7  1   
  9   5  23  1   
 10   5  24  1   
 11   6   7  1   
 12   6   8  1   
 13   6  25  1   
 14   7  26  1   
 15   7  27  1   
 16   8   9  1   
 17   9  10  1   
 18   9  28  1   
 19   9  29  1   
 20  10  11  1   
 21  10  12  2   
 22  11  13  1   
 23  12  14  1   
 24  13  14  2   
 25  13  15  1   
 26  15  16  ar  
 27  15  17  ar  
 28  16  18  ar  
 29  16  30  1   
 30  17  19  ar  
 31  17  31  1   
 32  18  20  ar  
 33  18  32  1   
 34  19  20  ar  
 35  19  33  1   
 36  20  34  1   
@<TRIPOS>SUBSTRUCTURE
  1 ****  11 GROUP 4 **** **** 0

# MOE 2024.06 (io_trps.svl 2023.06)
