@<TRIPOS>MOLECULE
8-Dimethylamino-3,7-dimethyl-1-(4-methyl-benzyl)-3,7-dihydro-purine-2,6-dione
46 48 1 0 0 
SMALL
USER_CHARGES


@<TRIPOS>ATOM
  1 O        1.2770     0.5490     3.1660 O.2   1 <1>  -0.5750 
  2 C        1.8920     1.0530     2.2480 C.2   1 <1>   0.6860 
  3 N        1.5210     2.2960     1.7590 N.am  1 <1>  -0.4260 
  4 N        2.9780     0.3880     1.6940 N.am  1 <1>  -0.4420 
  5 C        2.2870     2.9620     0.8180 C.2   1 <1>   0.6990 
  6 C        0.1350     2.7720     2.0020 C.3   1 <1>   0.2770 
  7 C        3.6870     1.0280     0.6950 C.2   1 <1>   0.4200 
  8 C        3.3680    -0.9750     2.1640 C.3   1 <1>   0.0510 
  9 O        2.0280     4.1120     0.5040 O.2   1 <1>  -0.5750 
 10 C        3.3980     2.2640     0.2410 C.2   1 <1>   0.2700 
 11 C       -0.7350     2.2580     0.8670 C.ar  1 <1>  -0.1520 
 12 N        4.7610     0.5560     0.0090 N.pl3 1 <1>  -0.7040 
 13 N        4.3480     2.5550    -0.7610 N.pl3 1 <1>  -0.7680 
 14 C       -0.9830     3.0510    -0.2430 C.ar  1 <1>  -0.1580 
 15 C       -1.2710     0.9810     0.9220 C.ar  1 <1>  -0.1580 
 16 C        5.1380     1.4750    -0.8820 C.cat 1 <1>   1.0690 
 17 C        4.4220     3.9030    -1.3950 C.3   1 <1>   0.2670 
 18 C       -1.7500     2.5670    -1.2880 C.ar  1 <1>  -0.1580 
 19 C       -2.0380     0.4990    -0.1240 C.ar  1 <1>  -0.1580 
 20 N        6.1600     1.2710    -1.7520 N.pl3 1 <1>  -0.5970 
 21 C       -2.2800     1.2890    -1.2350 C.ar  1 <1>  -0.1520 
 22 C        7.1930     0.2070    -1.5640 C.3   1 <1>   0.0790 
 23 C        6.3240     1.9980    -3.0440 C.3   1 <1>   0.0790 
 24 C       -3.1180     0.7630    -2.3860 C.3   1 <1>  -0.1050 
 25 H        0.1090     3.8480     2.0360 H     1 <1>   0.0720 
 26 H       -0.2350     2.4100     2.9460 H     1 <1>   0.0720 
 27 H        2.5680    -1.4300     2.7230 H     1 <1>   0.0720 
 28 H        4.2330    -0.9060     2.8000 H     1 <1>   0.0720 
 29 H        3.5870    -1.6090     1.3240 H     1 <1>   0.0720 
 30 H        5.1820    -0.3620     0.0990 H     1 <1>   0.4440 
 31 H       -0.5810     4.0470    -0.3030 H     1 <1>   0.1420 
 32 H       -1.0940     0.3530     1.7790 H     1 <1>   0.1420 
 33 H        4.1800     4.6670    -0.6760 H     1 <1>   0.0720 
 34 H        3.7200     3.9650    -2.2100 H     1 <1>   0.0720 
 35 H        5.4130     4.1040    -1.7600 H     1 <1>   0.0720 
 36 H       -1.9350     3.1910    -2.1450 H     1 <1>   0.1420 
 37 H       -2.4460    -0.4940    -0.0680 H     1 <1>   0.1420 
 38 H        7.2210    -0.1380    -0.5450 H     1 <1>   0.0720 
 39 H        8.1670     0.5980    -1.8080 H     1 <1>   0.0720 
 40 H        6.9840    -0.6260    -2.2150 H     1 <1>   0.0720 
 41 H        5.3840     2.3980    -3.3820 H     1 <1>   0.0720 
 42 H        6.6840     1.3250    -3.8040 H     1 <1>   0.0720 
 43 H        7.0360     2.7980    -2.9290 H     1 <1>   0.0720 
 44 H       -2.4770     0.3610    -3.1490 H     1 <1>   0.0720 
 45 H       -3.7100     1.5540    -2.8090 H     1 <1>   0.0720 
 46 H       -3.7820    -0.0120    -2.0460 H     1 <1>   0.0720 
@<TRIPOS>BOND
  1   1   2  2   
  2   2   3  am  
  3   2   4  am  
  4   3   5  am  
  5   3   6  1   
  6   4   7  1   
  7   4   8  1   
  8   5   9  2   
  9   5  10  1   
 10   6  11  1   
 11   6  25  1   
 12   6  26  1   
 13   7  10  2   
 14   7  12  1   
 15   8  27  1   
 16   8  28  1   
 17   8  29  1   
 18  10  13  1   
 19  11  14  ar  
 20  11  15  ar  
 21  12  16  ar  
 22  12  30  1   
 23  13  16  ar  
 24  13  17  1   
 25  14  18  ar  
 26  14  31  1   
 27  15  19  ar  
 28  15  32  1   
 29  16  20  ar  
 30  17  33  1   
 31  17  34  1   
 32  17  35  1   
 33  18  21  ar  
 34  18  36  1   
 35  19  21  ar  
 36  19  37  1   
 37  20  22  1   
 38  20  23  1   
 39  21  24  1   
 40  22  38  1   
 41  22  39  1   
 42  22  40  1   
 43  23  41  1   
 44  23  42  1   
 45  23  43  1   
 46  24  44  1   
 47  24  45  1   
 48  24  46  1   
@<TRIPOS>SUBSTRUCTURE
  1 ****  10 GROUP 4 **** **** 0

# MOE 2024.06 (io_trps.svl 2023.06)
