@<TRIPOS>MOLECULE
5-(3-Methoxy-phenyl)-1-methyl-2-methylsulfanyl-5,8-dihydro-1H,6H-pyrido[2,3-d]py
40 42 1 0 0 
SMALL
USER_CHARGES


@<TRIPOS>ATOM
  1 S        0.2530     0.7550     0.5310 S.3   1 <1>  -0.3710 
  2 C        1.9450     1.3290     0.4920 C.2   1 <1>   0.6410 
  3 C       -0.4140     1.3640     2.1460 C.3   1 <1>  -0.0100 
  4 N        2.3510     1.9910     1.5070 N.2   1 <1>  -0.6610 
  5 N        2.6870     1.0150    -0.6290 N.pl3 1 <1>  -0.5190 
  6 C        3.6320     2.4430     1.4720 C.2   1 <1>   0.7670 
  7 C        3.9720     1.5020    -0.7000 C.2   1 <1>   0.2090 
  8 C        2.0860     0.1580    -1.6980 C.3   1 <1>   0.1290 
  9 O        4.0490     3.0170     2.4720 O.2   1 <1>  -0.5700 
 10 C        4.4520     2.2310     0.3420 C.2   1 <1>  -0.1240 
 11 N        4.7590     1.2550    -1.8040 N.am  1 <1>  -0.5390 
 12 C        5.8520     2.8390     0.2900 C.3   1 <1>   0.2020 
 13 C        6.0850     1.5280    -1.8780 C.2   1 <1>   0.5690 
 14 C        5.7510     4.3220    -0.0840 C.ar  1 <1>  -0.1440 
 15 C        6.7900     2.0460    -0.6420 C.3   1 <1>  -0.0990 
 16 O        6.6930     1.3540    -2.8990 O.2   1 <1>  -0.5700 
 17 C        5.7150     5.2640     0.9360 C.ar  1 <1>  -0.1500 
 18 C        5.6800     4.7650    -1.4010 C.ar  1 <1>  -0.1500 
 19 C        5.6150     6.6230     0.6550 C.ar  1 <1>   0.0830 
 20 C        5.5900     6.1160    -1.6880 C.ar  1 <1>  -0.1500 
 21 O        5.5570     7.5860     1.6080 O.3   1 <1>  -0.3630 
 22 C        5.5600     7.0420    -0.6630 C.ar  1 <1>  -0.1500 
 23 C        5.3620     7.2510     2.9650 C.3   1 <1>   0.0400 
 24 H       -0.3450     2.4370     2.1490 H     1 <1>   0.0800 
 25 H        0.1870     0.9410     2.9320 H     1 <1>   0.0800 
 26 H       -1.4360     1.0420     2.2250 H     1 <1>   0.0800 
 27 H        2.8120    -0.1420    -2.4300 H     1 <1>   0.0800 
 28 H        1.6770    -0.7370    -1.2610 H     1 <1>   0.0800 
 29 H        1.2980     0.6980    -2.1930 H     1 <1>   0.0800 
 30 H        4.3520     0.8810    -2.6570 H     1 <1>   0.3700 
 31 H        6.2890     2.7780     1.2730 H     1 <1>   0.0800 
 32 H        7.1680     1.1920    -0.1120 H     1 <1>   0.0800 
 33 H        7.6290     2.6530    -0.9280 H     1 <1>   0.0800 
 34 H        5.7610     4.9290     1.9550 H     1 <1>   0.1500 
 35 H        5.6930     4.0770    -2.2260 H     1 <1>   0.1500 
 36 H        5.5420     6.4470    -2.7110 H     1 <1>   0.1500 
 37 H        5.4880     8.0930    -0.8760 H     1 <1>   0.1500 
 38 H        5.2390     8.1630     3.5200 H     1 <1>   0.0800 
 39 H        6.2260     6.7190     3.3210 H     1 <1>   0.0800 
 40 H        4.4760     6.6460     3.0520 H     1 <1>   0.0800 
@<TRIPOS>BOND
  1   1   2  1   
  2   1   3  1   
  3   2   4  2   
  4   2   5  1   
  5   3  24  1   
  6   3  25  1   
  7   3  26  1   
  8   4   6  1   
  9   5   7  1   
 10   5   8  1   
 11   6   9  2   
 12   6  10  1   
 13   7  10  2   
 14   7  11  1   
 15   8  27  1   
 16   8  28  1   
 17   8  29  1   
 18  10  12  1   
 19  11  13  am  
 20  11  30  1   
 21  12  14  1   
 22  12  15  1   
 23  12  31  1   
 24  13  15  1   
 25  13  16  2   
 26  14  17  ar  
 27  14  18  ar  
 28  15  32  1   
 29  15  33  1   
 30  17  19  ar  
 31  17  34  1   
 32  18  20  ar  
 33  18  35  1   
 34  19  21  1   
 35  19  22  ar  
 36  20  22  ar  
 37  20  36  1   
 38  21  23  1   
 39  22  37  1   
 40  23  38  1   
 41  23  39  1   
 42  23  40  1   
@<TRIPOS>SUBSTRUCTURE
  1 ****  10 GROUP 4 **** **** 0

# MOE 2024.06 (io_trps.svl 2023.06)
