@<TRIPOS>MOLECULE
1-[2-(4-Fluoro-phenyl)-ethyl]-5-oxo-pyrrolidine-3-carboxylic acid [1,3,4]thiadia
38 40 1 0 0 
SMALL
USER_CHARGES


@<TRIPOS>ATOM
  1 S       -0.1610    -0.6360     0.4170 S.3   1 <1>  -0.0800 
  2 C       -1.8040    -0.1610     0.1260 C.2   1 <1>   0.4420 
  3 C        0.1730     1.0220     0.7750 C.2   1 <1>   0.2280 
  4 N       -1.9830     1.0970     0.3010 N.2   1 <1>  -0.3380 
  5 N       -2.6790    -1.1630    -0.2410 N.am  1 <1>  -0.4940 
  6 N       -0.8490     1.7680     0.6720 N.2   1 <1>  -0.3380 
  7 C       -4.0090    -1.0770    -0.5440 C.2   1 <1>   0.5690 
  8 O       -4.6180    -0.0400    -0.5570 O.2   1 <1>  -0.5700 
  9 C       -4.7400    -2.3640    -0.9060 C.3   1 <1>  -0.0190 
 10 C       -6.2720    -2.2120    -0.9630 C.3   1 <1>   0.1400 
 11 C       -4.4880    -3.5370     0.0650 C.3   1 <1>  -0.0990 
 12 N       -6.7640    -3.5260    -0.5140 N.am  1 <1>  -0.6600 
 13 C       -5.7970    -4.2730     0.0600 C.2   1 <1>   0.5690 
 14 C       -8.1870    -3.9170    -0.6470 C.3   1 <1>   0.1400 
 15 O       -5.9310    -5.3770     0.5230 O.2   1 <1>  -0.5700 
 16 C       -8.9970    -3.3690     0.5290 C.3   1 <1>  -0.0170 
 17 C      -10.4560    -3.7760     0.3970 C.ar  1 <1>  -0.1440 
 18 C      -10.8630    -5.0300     0.8340 C.ar  1 <1>  -0.1500 
 19 C      -11.3790    -2.9010    -0.1630 C.ar  1 <1>  -0.1500 
 20 C      -12.1880    -5.4160     0.7140 C.ar  1 <1>  -0.1500 
 21 C      -12.7070    -3.2750    -0.2880 C.ar  1 <1>  -0.1500 
 22 C      -13.0860    -4.5280     0.1540 C.ar  1 <1>   0.1900 
 23 F      -14.3370    -4.8850     0.0390 F     1 <1>  -0.1900 
 24 H        1.1780     1.2910     1.0470 H     1 <1>   0.1500 
 25 H       -2.2640    -2.0890    -0.2910 H     1 <1>   0.3700 
 26 H       -4.4180    -2.6580    -1.8880 H     1 <1>   0.0800 
 27 H       -6.6080    -1.9870    -1.9610 H     1 <1>   0.0800 
 28 H       -6.6220    -1.4550    -0.2800 H     1 <1>   0.0800 
 29 H       -4.3030    -3.1930     1.0660 H     1 <1>   0.0800 
 30 H       -3.6930    -4.1790    -0.2650 H     1 <1>   0.0800 
 31 H       -8.2590    -4.9920    -0.6590 H     1 <1>   0.0800 
 32 H       -8.5820    -3.5440    -1.5760 H     1 <1>   0.0800 
 33 H       -8.9190    -2.2970     0.5570 H     1 <1>   0.0800 
 34 H       -8.5980    -3.7610     1.4480 H     1 <1>   0.0800 
 35 H      -10.1490    -5.7100     1.2670 H     1 <1>   0.1500 
 36 H      -11.0700    -1.9280    -0.5030 H     1 <1>   0.1500 
 37 H      -12.5200    -6.3820     1.0470 H     1 <1>   0.1500 
 38 H      -13.4360    -2.6120    -0.7180 H     1 <1>   0.1500 
@<TRIPOS>BOND
  1   1   2  1   
  2   1   3  1   
  3   2   4  2   
  4   2   5  1   
  5   3   6  2   
  6   3  24  1   
  7   4   6  1   
  8   5   7  am  
  9   5  25  1   
 10   7   8  2   
 11   7   9  1   
 12   9  10  1   
 13   9  11  1   
 14   9  26  1   
 15  10  12  1   
 16  10  27  1   
 17  10  28  1   
 18  11  13  1   
 19  11  29  1   
 20  11  30  1   
 21  12  13  am  
 22  12  14  1   
 23  13  15  2   
 24  14  16  1   
 25  14  31  1   
 26  14  32  1   
 27  16  17  1   
 28  16  33  1   
 29  16  34  1   
 30  17  18  ar  
 31  17  19  ar  
 32  18  20  ar  
 33  18  35  1   
 34  19  21  ar  
 35  19  36  1   
 36  20  22  ar  
 37  20  37  1   
 38  21  22  ar  
 39  21  38  1   
 40  22  23  1   
@<TRIPOS>SUBSTRUCTURE
  1 ****  10 GROUP 4 **** **** 0

# MOE 2024.06 (io_trps.svl 2023.06)
