@<TRIPOS>MOLECULE
Furan-2-carboxylic acid cyclohexyl-[3-(3,4-dimethoxy-phenyl)-[1,2,4]oxadiazol-5-
55 58 1 0 0 
SMALL
USER_CHARGES


@<TRIPOS>ATOM
  1 O       -0.0400     1.1120    -1.0150 O.2   1 <1>  -0.5700 
  2 C        0.2690     2.2230    -0.6210 C.2   1 <1>   0.7150 
  3 N        1.5600     2.6480    -0.8540 N.am  1 <1>  -0.6600 
  4 C       -0.6950     3.0240     0.1020 C.2   1 <1>   0.0550 
  5 C        1.9430     4.0290    -1.2790 C.3   1 <1>   0.2200 
  6 C        2.6280     1.6190    -1.0650 C.3   1 <1>   0.3200 
  7 O       -1.8670     3.3420    -0.4410 O.3   1 <1>  -0.2800 
  8 C       -0.6420     3.5610     1.3530 C.2   1 <1>  -0.1500 
  9 C        2.2040     4.9450    -0.0770 C.3   1 <1>  -0.1600 
 10 C        0.9280     4.6550    -2.2480 C.3   1 <1>  -0.1600 
 11 C        3.8890     1.9440    -0.2780 C.2   1 <1>   0.2980 
 12 C       -2.5510     4.0630     0.4180 C.2   1 <1>  -0.0100 
 13 C       -1.8450     4.2380     1.5540 C.2   1 <1>  -0.1500 
 14 C        2.6980     6.3220    -0.5470 C.3   1 <1>  -0.1600 
 15 C        1.4180     6.0300    -2.7240 C.3   1 <1>  -0.1600 
 16 O        3.8610     1.8140     1.0220 O.3   1 <1>  -0.0190 
 17 N        4.9880     2.3560    -0.7630 N.2   1 <1>  -0.5650 
 18 C        1.7070     6.9570    -1.5340 C.3   1 <1>  -0.1600 
 19 N        5.0450     2.1820     1.3990 N.2   1 <1>  -0.4100 
 20 C        5.7150     2.5040     0.3500 C.2   1 <1>   0.4620 
 21 C        7.0870     2.9820     0.3300 C.ar  1 <1>   0.0540 
 22 C        7.8380     3.0720     1.5040 C.ar  1 <1>  -0.1500 
 23 C        7.7100     3.3780    -0.8570 C.ar  1 <1>  -0.1500 
 24 C        9.1410     3.5330     1.5030 C.ar  1 <1>   0.0830 
 25 C        9.0180     3.8270    -0.8750 C.ar  1 <1>  -0.1500 
 26 O        9.7750     3.6200     2.6980 O.3   1 <1>  -0.3630 
 27 C        9.7500     3.8930     0.2970 C.ar  1 <1>   0.0830 
 28 C       10.0670     4.9220     3.1540 C.3   1 <1>   0.0400 
 29 O       11.0370     4.3070     0.2080 O.3   1 <1>  -0.3630 
 30 C       12.0300     3.3710     0.5670 C.3   1 <1>   0.0400 
 31 H        2.8700     3.9600    -1.8240 H     1 <1>   0.0800 
 32 H        2.8660     1.5720    -2.1130 H     1 <1>   0.0800 
 33 H        2.2860     0.6450    -0.7590 H     1 <1>   0.0800 
 34 H        0.1610     3.4860     2.0650 H     1 <1>   0.1500 
 35 H        2.9450     4.5070     0.5680 H     1 <1>   0.0800 
 36 H        1.3010     5.0870     0.4820 H     1 <1>   0.0800 
 37 H       -0.0220     4.7900    -1.7660 H     1 <1>   0.0800 
 38 H        0.7930     4.0100    -3.0990 H     1 <1>   0.0800 
 39 H       -3.5320     4.4110     0.1420 H     1 <1>   0.1500 
 40 H       -2.1260     4.7760     2.4430 H     1 <1>   0.1500 
 41 H        3.6580     6.2140    -1.0240 H     1 <1>   0.0800 
 42 H        2.8240     6.9690     0.3030 H     1 <1>   0.0800 
 43 H        0.6710     6.4790    -3.3570 H     1 <1>   0.0800 
 44 H        2.3150     5.9100    -3.3090 H     1 <1>   0.0800 
 45 H        2.1060     7.8910    -1.8930 H     1 <1>   0.0800 
 46 H        0.7850     7.1720    -1.0210 H     1 <1>   0.0800 
 47 H        7.3980     2.7830     2.4420 H     1 <1>   0.1500 
 48 H        7.1640     3.3320    -1.7820 H     1 <1>   0.1500 
 49 H        9.4810     4.1230    -1.7990 H     1 <1>   0.1500 
 50 H       10.4980     4.8460     4.1350 H     1 <1>   0.0800 
 51 H        9.1530     5.4880     3.1950 H     1 <1>   0.0800 
 52 H       10.7640     5.3880     2.4810 H     1 <1>   0.0800 
 53 H       12.9890     3.7850     0.3130 H     1 <1>   0.0800 
 54 H       11.8640     2.4610     0.0170 H     1 <1>   0.0800 
 55 H       11.9810     3.1840     1.6240 H     1 <1>   0.0800 
@<TRIPOS>BOND
  1   1   2  2   
  2   2   3  am  
  3   2   4  1   
  4   3   5  1   
  5   3   6  1   
  6   4   7  1   
  7   4   8  2   
  8   5   9  1   
  9   5  10  1   
 10   5  31  1   
 11   6  11  1   
 12   6  32  1   
 13   6  33  1   
 14   7  12  1   
 15   8  13  1   
 16   8  34  1   
 17   9  14  1   
 18   9  35  1   
 19   9  36  1   
 20  10  15  1   
 21  10  37  1   
 22  10  38  1   
 23  11  16  1   
 24  11  17  2   
 25  12  13  2   
 26  12  39  1   
 27  13  40  1   
 28  14  18  1   
 29  14  41  1   
 30  14  42  1   
 31  15  18  1   
 32  15  43  1   
 33  15  44  1   
 34  16  19  1   
 35  17  20  1   
 36  18  45  1   
 37  18  46  1   
 38  19  20  2   
 39  20  21  1   
 40  21  22  ar  
 41  21  23  ar  
 42  22  24  ar  
 43  22  47  1   
 44  23  25  ar  
 45  23  48  1   
 46  24  26  1   
 47  24  27  ar  
 48  25  27  ar  
 49  25  49  1   
 50  26  28  1   
 51  27  29  1   
 52  28  50  1   
 53  28  51  1   
 54  28  52  1   
 55  29  30  1   
 56  30  53  1   
 57  30  54  1   
 58  30  55  1   
@<TRIPOS>SUBSTRUCTURE
  1 ****  11 GROUP 4 **** **** 0

# MOE 2024.06 (io_trps.svl 2023.06)
