@<TRIPOS>MOLECULE
6-Adamantan-1-yl-3-(4-methoxy-benzyl)-[1,2,4]triazolo[3,4-b][1,3,4]thiadiazole
51 56 1 0 0 
SMALL
USER_CHARGES


@<TRIPOS>ATOM
  1 S        0.1180     0.5790    -1.5390 S.3   1 <1>  -0.1970 
  2 C       -0.7110     2.0640    -1.1320 C.2   1 <1>   0.2420 
  3 C       -0.9200    -0.2720    -0.3660 C.2   1 <1>   0.5300 
  4 N       -0.6300     3.2990    -1.4810 N.2   1 <1>  -0.3380 
  5 N       -1.6370     1.7970    -0.2290 N.pl3 1 <1>   0.5050 
  6 N       -1.7560     0.4830     0.2300 N.2   1 <1>  -0.6520 
  7 C       -0.7020    -1.7870    -0.2010 C.3   1 <1>   0.0610 
  8 N       -1.5840     3.9150    -0.7560 N.2   1 <1>  -0.3380 
  9 C       -2.1690     3.0110    -0.0270 C.2   1 <1>   0.0060 
 10 C       -1.6850    -2.3670     0.8500 C.3   1 <1>  -0.1600 
 11 C        0.7420    -2.0860     0.2770 C.3   1 <1>  -0.1600 
 12 C       -0.9440    -2.5250    -1.5410 C.3   1 <1>  -0.1600 
 13 C       -3.3150     3.2510     0.9350 C.3   1 <1>   0.1640 
 14 C       -1.4800    -3.8820     1.0250 C.3   1 <1>  -0.0800 
 15 C        0.9590    -3.6020     0.4460 C.3   1 <1>  -0.0800 
 16 C       -0.7310    -4.0420    -1.3770 C.3   1 <1>  -0.0800 
 17 C       -4.5630     2.5130     0.4720 C.ar  1 <1>  -0.1440 
 18 C       -0.0350    -4.1440     1.4890 C.3   1 <1>  -0.1600 
 19 C       -1.7160    -4.5830    -0.3250 C.3   1 <1>  -0.1600 
 20 C        0.7110    -4.3020    -0.9030 C.3   1 <1>  -0.1600 
 21 C       -4.9390     1.3150     1.0620 C.ar  1 <1>  -0.1500 
 22 C       -5.3300     3.0310    -0.5600 C.ar  1 <1>  -0.1500 
 23 C       -6.0710     0.6440     0.6320 C.ar  1 <1>  -0.1500 
 24 C       -6.4620     2.3630    -0.9910 C.ar  1 <1>  -0.1500 
 25 C       -6.8420     1.1690    -0.4010 C.ar  1 <1>   0.0820 
 26 O       -7.9640     0.5780    -0.8820 O.3   1 <1>  -0.3620 
 27 C       -8.4410    -0.6350    -0.3450 C.3   1 <1>   0.0400 
 28 H       -2.6990    -2.1780     0.5420 H     1 <1>   0.0800 
 29 H       -1.5390    -1.8760     1.7960 H     1 <1>   0.0800 
 30 H        0.9250    -1.5900     1.2140 H     1 <1>   0.0800 
 31 H        1.4560    -1.7110    -0.4350 H     1 <1>   0.0800 
 32 H       -0.2700    -2.1610    -2.2970 H     1 <1>   0.0800 
 33 H       -1.9470    -2.3380    -1.8830 H     1 <1>   0.0800 
 34 H       -3.5210     4.3050     0.9890 H     1 <1>   0.0800 
 35 H       -3.0300     2.9220     1.9190 H     1 <1>   0.0800 
 36 H       -2.1710    -4.2620     1.7580 H     1 <1>   0.0800 
 37 H        1.9670    -3.7910     0.7740 H     1 <1>   0.0800 
 38 H       -0.8990    -4.5380    -2.3190 H     1 <1>   0.0800 
 39 H        0.1360    -3.6690     2.4390 H     1 <1>   0.0800 
 40 H        0.1180    -5.2010     1.6220 H     1 <1>   0.0800 
 41 H       -2.7280    -4.4160    -0.6510 H     1 <1>   0.0800 
 42 H       -1.5810    -5.6450    -0.2120 H     1 <1>   0.0800 
 43 H        0.8730    -5.3610    -0.7970 H     1 <1>   0.0800 
 44 H        1.4090    -3.9380    -1.6370 H     1 <1>   0.0800 
 45 H       -4.3470     0.8930     1.8570 H     1 <1>   0.1500 
 46 H       -5.0460     3.9550    -1.0360 H     1 <1>   0.1500 
 47 H       -6.3330    -0.2800     1.1100 H     1 <1>   0.1500 
 48 H       -7.0580     2.7630    -1.7910 H     1 <1>   0.1500 
 49 H       -9.3350    -0.9070    -0.8760 H     1 <1>   0.0800 
 50 H       -8.6650    -0.4910     0.6970 H     1 <1>   0.0800 
 51 H       -7.6910    -1.3950    -0.4790 H     1 <1>   0.0800 
@<TRIPOS>BOND
  1   1   2  1   
  2   1   3  1   
  3   2   4  2   
  4   2   5  1   
  5   3   6  2   
  6   3   7  1   
  7   4   8  1   
  8   5   6  1   
  9   5   9  1   
 10   7  10  1   
 11   7  11  1   
 12   7  12  1   
 13   8   9  2   
 14   9  13  1   
 15  10  14  1   
 16  10  28  1   
 17  10  29  1   
 18  11  15  1   
 19  11  30  1   
 20  11  31  1   
 21  12  16  1   
 22  12  32  1   
 23  12  33  1   
 24  13  17  1   
 25  13  34  1   
 26  13  35  1   
 27  14  18  1   
 28  14  19  1   
 29  14  36  1   
 30  15  18  1   
 31  15  20  1   
 32  15  37  1   
 33  16  19  1   
 34  16  20  1   
 35  16  38  1   
 36  17  21  ar  
 37  17  22  ar  
 38  18  39  1   
 39  18  40  1   
 40  19  41  1   
 41  19  42  1   
 42  20  43  1   
 43  20  44  1   
 44  21  23  ar  
 45  21  45  1   
 46  22  24  ar  
 47  22  46  1   
 48  23  25  ar  
 49  23  47  1   
 50  24  25  ar  
 51  24  48  1   
 52  25  26  1   
 53  26  27  1   
 54  27  49  1   
 55  27  50  1   
 56  27  51  1   
@<TRIPOS>SUBSTRUCTURE
  1 ****   6 GROUP 4 **** **** 0

# MOE 2024.06 (io_trps.svl 2023.06)
