@<TRIPOS>MOLECULE
1-Acetyl-2,3-dihydro-1H-indole-5-sulfonic acid cyclopropylamide
35 37 1 0 0 
SMALL
USER_CHARGES


@<TRIPOS>ATOM
  1 S       -0.1330     0.2490     0.6680 S.o2  1 <1>   1.4470 
  2 O        0.0910     1.1730     1.7560 O.2   1 <1>  -0.6500 
  3 O       -1.2880    -0.6220     0.6640 O.2   1 <1>  -0.6500 
  4 N       -0.2160     1.0840    -0.7940 N.am  1 <1>  -0.7890 
  5 C        1.3680    -0.7420     0.4380 C.ar  1 <1>  -0.0090 
  6 C       -1.1290     2.2080    -0.9780 C.3   1 <1>   0.1310 
  7 C        2.6220    -0.1370     0.4380 C.ar  1 <1>  -0.1500 
  8 C        1.3090    -2.1200     0.2380 C.ar  1 <1>  -0.1500 
  9 C       -1.2900     3.3170     0.0050 C.3   1 <1>  -0.2000 
 10 C       -2.4020     2.3250    -0.2060 C.3   1 <1>  -0.2000 
 11 C        3.7600    -0.8950     0.2430 C.ar  1 <1>  -0.1430 
 12 C        2.4550    -2.8750     0.0420 C.ar  1 <1>  -0.1500 
 13 C        3.6970    -2.2560     0.0440 C.ar  1 <1>   0.1170 
 14 C        5.1910    -0.4250     0.2140 C.3   1 <1>  -0.0170 
 15 N        4.9710    -2.8110    -0.1320 N.am  1 <1>  -0.4770 
 16 C        5.9820    -1.7210    -0.0240 C.3   1 <1>   0.1400 
 17 C        5.3110    -4.1260    -0.3740 C.2   1 <1>   0.5690 
 18 O        4.5030    -5.0150    -0.4820 O.2   1 <1>  -0.5700 
 19 C        6.7690    -4.5060    -0.5200 C.3   1 <1>  -0.1790 
 20 H       -0.5510     0.3650    -1.4300 H     1 <1>   0.4200 
 21 H       -1.1530     2.5070    -2.0140 H     1 <1>   0.1000 
 22 H        2.6980     0.9270     0.5920 H     1 <1>   0.1500 
 23 H        0.3530    -2.6160     0.2360 H     1 <1>   0.1500 
 24 H       -1.4330     4.3170    -0.3650 H     1 <1>   0.1000 
 25 H       -0.7510     3.3080     0.9340 H     1 <1>   0.1000 
 26 H       -2.6320     1.6650     0.6110 H     1 <1>   0.1000 
 27 H       -3.2870     2.6640    -0.7150 H     1 <1>   0.1000 
 28 H        2.3770    -3.9370    -0.1080 H     1 <1>   0.1500 
 29 H        5.4670     0.0270     1.1500 H     1 <1>   0.0800 
 30 H        5.3490     0.2730    -0.5880 H     1 <1>   0.0800 
 31 H        6.6400    -1.9160     0.8050 H     1 <1>   0.0800 
 32 H        6.5480    -1.6540    -0.9360 H     1 <1>   0.0800 
 33 H        7.2010    -3.9920    -1.3570 H     1 <1>   0.0800 
 34 H        6.8500    -5.5640    -0.6900 H     1 <1>   0.0800 
 35 H        7.3040    -4.2630     0.3780 H     1 <1>   0.0800 
@<TRIPOS>BOND
  1   1   2  2   
  2   1   3  2   
  3   1   4  am  
  4   1   5  1   
  5   4   6  1   
  6   4  20  1   
  7   5   7  ar  
  8   5   8  ar  
  9   6   9  1   
 10   6  10  1   
 11   6  21  1   
 12   7  11  ar  
 13   7  22  1   
 14   8  12  ar  
 15   8  23  1   
 16   9  10  1   
 17   9  24  1   
 18   9  25  1   
 19  10  26  1   
 20  10  27  1   
 21  11  13  ar  
 22  11  14  1   
 23  12  13  ar  
 24  12  28  1   
 25  13  15  1   
 26  14  16  1   
 27  14  29  1   
 28  14  30  1   
 29  15  16  1   
 30  15  17  am  
 31  16  31  1   
 32  16  32  1   
 33  17  18  2   
 34  17  19  1   
 35  19  33  1   
 36  19  34  1   
 37  19  35  1   
@<TRIPOS>SUBSTRUCTURE
  1 ****   5 GROUP 4 **** **** 0

# MOE 2024.06 (io_trps.svl 2023.06)
