@<TRIPOS>MOLECULE
N-[3-(3,4-Dimethoxy-phenyl)-[1,2,4]oxadiazol-5-ylmethyl]-N-isopropyl-4-methyl-be
55 57 1 0 0 
SMALL
USER_CHARGES


@<TRIPOS>ATOM
  1 S        0.8460    -0.8390    -1.4090 S.o2  1 <1>   1.4470 
  2 O        1.4210     0.3990    -1.8830 O.2   1 <1>  -0.6500 
  3 O        0.7840    -1.9550    -2.3290 O.2   1 <1>  -0.6500 
  4 N        1.7580    -1.4020    -0.0890 N.am  1 <1>  -0.8490 
  5 C       -0.8270    -0.5600    -0.7640 C.ar  1 <1>  -0.0090 
  6 C        1.9510    -0.5920     1.1250 C.3   1 <1>   0.2760 
  7 C        2.9950    -2.0830    -0.5230 C.3   1 <1>   0.3760 
  8 C       -1.6080    -1.6230    -0.3260 C.ar  1 <1>  -0.1500 
  9 C       -1.3650     0.7180    -0.6760 C.ar  1 <1>  -0.1500 
 10 C        0.7990    -0.8450     2.0940 C.3   1 <1>  -0.2400 
 11 C        2.1470     0.9060     0.8930 C.3   1 <1>  -0.2400 
 12 C        4.1400    -1.1600    -0.9340 C.2   1 <1>   0.2980 
 13 C       -2.8770    -1.4190     0.1890 C.ar  1 <1>  -0.1500 
 14 C       -2.6330     0.9300    -0.1620 C.ar  1 <1>  -0.1500 
 15 O        4.1830    -0.7090    -2.1590 O.3   1 <1>  -0.0190 
 16 N        5.0980    -0.7910    -0.1840 N.2   1 <1>  -0.5650 
 17 C       -3.3960    -0.1390     0.2740 C.ar  1 <1>  -0.1430 
 18 N        5.2570     0.0160    -2.1910 N.2   1 <1>  -0.4100 
 19 C        5.7970    -0.0220    -1.0260 C.2   1 <1>   0.4620 
 20 C       -4.7860     0.0900     0.8390 C.3   1 <1>  -0.0970 
 21 C        7.0120     0.6720    -0.6340 C.ar  1 <1>   0.0540 
 22 C        7.6170     0.4610     0.6040 C.ar  1 <1>  -0.1500 
 23 C        7.6290     1.5850    -1.4890 C.ar  1 <1>  -0.1500 
 24 C        8.7760     1.1140     0.9860 C.ar  1 <1>   0.0830 
 25 C        8.7800     2.2580    -1.1260 C.ar  1 <1>  -0.1500 
 26 O        9.2430     0.7800     2.2230 O.3   1 <1>  -0.3630 
 27 C        9.3690     2.0430     0.1170 C.ar  1 <1>   0.0830 
 28 C       10.6280     0.7340     2.4880 C.3   1 <1>   0.0400 
 29 O       10.4860     2.7260     0.5020 O.3   1 <1>  -0.3630 
 30 C       11.0170     3.7890    -0.2570 C.3   1 <1>   0.0400 
 31 H        2.8390    -0.9470     1.6260 H     1 <1>   0.0800 
 32 H        2.7900    -2.7620    -1.3320 H     1 <1>   0.0800 
 33 H        3.3460    -2.6880     0.2940 H     1 <1>   0.0800 
 34 H       -1.2150    -2.6240    -0.3890 H     1 <1>   0.1500 
 35 H       -0.7860     1.5610    -1.0150 H     1 <1>   0.1500 
 36 H       -0.1040    -0.3640     1.7700 H     1 <1>   0.0800 
 37 H        1.0500    -0.4460     3.0600 H     1 <1>   0.0800 
 38 H        0.6250    -1.9000     2.2010 H     1 <1>   0.0800 
 39 H        2.9380     1.0880     0.1880 H     1 <1>   0.0800 
 40 H        2.4220     1.3780     1.8190 H     1 <1>   0.0800 
 41 H        1.2450     1.3730     0.5450 H     1 <1>   0.0800 
 42 H       -3.4570    -2.2620     0.5220 H     1 <1>   0.1500 
 43 H       -3.0220     1.9320    -0.1050 H     1 <1>   0.1500 
 44 H       -5.4180    -0.7580     0.6390 H     1 <1>   0.0800 
 45 H       -5.2360     0.9590     0.3930 H     1 <1>   0.0800 
 46 H       -4.7280     0.2360     1.9030 H     1 <1>   0.0800 
 47 H        7.1780    -0.2350     1.2960 H     1 <1>   0.1500 
 48 H        7.1950     1.7740    -2.4560 H     1 <1>   0.1500 
 49 H        9.2000     2.9490    -1.8310 H     1 <1>   0.1500 
 50 H       10.7840     0.1060     3.3460 H     1 <1>   0.0800 
 51 H       10.9740     1.7300     2.7000 H     1 <1>   0.0800 
 52 H       11.1380     0.3260     1.6340 H     1 <1>   0.0800 
 53 H       11.8440     4.2070     0.2890 H     1 <1>   0.0800 
 54 H       10.2550     4.5360    -0.3940 H     1 <1>   0.0800 
 55 H       11.3610     3.4070    -1.2020 H     1 <1>   0.0800 
@<TRIPOS>BOND
  1   1   2  2   
  2   1   3  2   
  3   1   4  am  
  4   1   5  1   
  5   4   6  1   
  6   4   7  1   
  7   5   8  ar  
  8   5   9  ar  
  9   6  10  1   
 10   6  11  1   
 11   6  31  1   
 12   7  12  1   
 13   7  32  1   
 14   7  33  1   
 15   8  13  ar  
 16   8  34  1   
 17   9  14  ar  
 18   9  35  1   
 19  10  36  1   
 20  10  37  1   
 21  10  38  1   
 22  11  39  1   
 23  11  40  1   
 24  11  41  1   
 25  12  15  1   
 26  12  16  2   
 27  13  17  ar  
 28  13  42  1   
 29  14  17  ar  
 30  14  43  1   
 31  15  18  1   
 32  16  19  1   
 33  17  20  1   
 34  18  19  2   
 35  19  21  1   
 36  20  44  1   
 37  20  45  1   
 38  20  46  1   
 39  21  22  ar  
 40  21  23  ar  
 41  22  24  ar  
 42  22  47  1   
 43  23  25  ar  
 44  23  48  1   
 45  24  26  1   
 46  24  27  ar  
 47  25  27  ar  
 48  25  49  1   
 49  26  28  1   
 50  27  29  1   
 51  28  50  1   
 52  28  51  1   
 53  28  52  1   
 54  29  30  1   
 55  30  53  1   
 56  30  54  1   
 57  30  55  1   
@<TRIPOS>SUBSTRUCTURE
  1 ****  12 GROUP 4 **** **** 0

# MOE 2024.06 (io_trps.svl 2023.06)
