@<TRIPOS>MOLECULE
N-(6-Benzyl-5-methyl-7-oxo-4,7-dihydro-[1,2,4]triazolo[1,5-a]pyrimidin-2-yl)-iso
43 45 1 0 0 
SMALL
USER_CHARGES


@<TRIPOS>ATOM
  1 O       -0.0370    -0.8190     2.3780 O.2   1 <1>  -0.5700 
  2 C       -0.2200    -1.4070     1.3170 C.2   1 <1>   0.5650 
  3 N       -1.5290    -1.7150     0.8840 N.pl3 1 <1>   0.5610 
  4 C        0.8740    -1.8380     0.4830 C.2   1 <1>  -0.1240 
  5 N       -2.7600    -1.4450     1.3960 N.2   1 <1>  -0.7070 
  6 C       -1.7230    -2.4420    -0.2370 C.2   1 <1>   0.2700 
  7 C        0.6370    -2.5700    -0.6500 C.2   1 <1>  -0.0380 
  8 C        2.2770    -1.4140     0.9320 C.3   1 <1>   0.1220 
  9 C       -3.5410    -2.0200     0.5500 C.2   1 <1>   0.5790 
 10 N       -2.9600    -2.6530    -0.4790 N.2   1 <1>  -0.5650 
 11 N       -0.6570    -2.8810    -0.9950 N.pl3 1 <1>  -0.5840 
 12 C        1.6640    -3.1040    -1.6380 C.3   1 <1>  -0.1020 
 13 C        2.6220    -0.0390     0.3760 C.ar  1 <1>  -0.1440 
 14 N       -4.9020    -1.9540     0.7500 N.am  1 <1>  -0.4930 
 15 C        2.2450     1.1050     1.0650 C.ar  1 <1>  -0.1500 
 16 C        3.3130     0.0920    -0.8200 C.ar  1 <1>  -0.1500 
 17 C       -5.9470    -2.4420     0.0290 C.2   1 <1>   0.5690 
 18 C        2.5480     2.3590     0.5640 C.ar  1 <1>  -0.1500 
 19 C        3.6170     1.3460    -1.3230 C.ar  1 <1>  -0.1500 
 20 O       -5.8280    -3.0660    -0.9980 O.2   1 <1>  -0.5700 
 21 C       -7.3590    -2.1730     0.5670 C.3   1 <1>  -0.0190 
 22 C        3.2340     2.4810    -0.6310 C.ar  1 <1>  -0.1500 
 23 C       -8.1000    -3.4820     0.8830 C.3   1 <1>  -0.2400 
 24 C       -8.1840    -1.3260    -0.4160 C.3   1 <1>  -0.2400 
 25 H        3.0160    -2.1260     0.6210 H     1 <1>   0.0800 
 26 H        2.3390    -1.3890     2.0070 H     1 <1>   0.0800 
 27 H       -0.8960    -3.4170    -1.8390 H     1 <1>   0.4000 
 28 H        1.5070    -2.6490    -2.6000 H     1 <1>   0.0800 
 29 H        1.5490    -4.1690    -1.7400 H     1 <1>   0.0800 
 30 H        2.6740    -2.9110    -1.3420 H     1 <1>   0.0800 
 31 H       -5.1150    -1.4370     1.5940 H     1 <1>   0.3700 
 32 H        1.7120     1.0290     1.9970 H     1 <1>   0.1500 
 33 H        3.6210    -0.7770    -1.3710 H     1 <1>   0.1500 
 34 H        2.2490     3.2400     1.1060 H     1 <1>   0.1500 
 35 H        4.1520     1.4390    -2.2520 H     1 <1>   0.1500 
 36 H       -7.2730    -1.6180     1.4840 H     1 <1>   0.0800 
 37 H        3.4690     3.4560    -1.0210 H     1 <1>   0.1500 
 38 H       -8.2260    -4.0650    -0.0130 H     1 <1>   0.0800 
 39 H       -9.0700    -3.2770     1.3010 H     1 <1>   0.0800 
 40 H       -7.5380    -4.0670     1.5900 H     1 <1>   0.0800 
 41 H       -8.3110    -1.8540    -1.3460 H     1 <1>   0.0800 
 42 H       -7.6800    -0.3980    -0.6200 H     1 <1>   0.0800 
 43 H       -9.1550    -1.1090    -0.0070 H     1 <1>   0.0800 
@<TRIPOS>BOND
  1   1   2  2   
  2   2   3  1   
  3   2   4  1   
  4   3   5  1   
  5   3   6  1   
  6   4   7  2   
  7   4   8  1   
  8   5   9  2   
  9   6  10  2   
 10   6  11  1   
 11   7  11  1   
 12   7  12  1   
 13   8  13  1   
 14   8  25  1   
 15   8  26  1   
 16   9  10  1   
 17   9  14  1   
 18  11  27  1   
 19  12  28  1   
 20  12  29  1   
 21  12  30  1   
 22  13  15  ar  
 23  13  16  ar  
 24  14  17  am  
 25  14  31  1   
 26  15  18  ar  
 27  15  32  1   
 28  16  19  ar  
 29  16  33  1   
 30  17  20  2   
 31  17  21  1   
 32  18  22  ar  
 33  18  34  1   
 34  19  22  ar  
 35  19  35  1   
 36  21  23  1   
 37  21  24  1   
 38  21  36  1   
 39  22  37  1   
 40  23  38  1   
 41  23  39  1   
 42  23  40  1   
 43  24  41  1   
 44  24  42  1   
 45  24  43  1   
@<TRIPOS>SUBSTRUCTURE
  1 ****   3 GROUP 4 **** **** 0

# MOE 2024.06 (io_trps.svl 2023.06)
