@<TRIPOS>MOLECULE
N-(4-Amino-2-methyl-phenyl)-2-morpholin-4-yl-acetamide
37 38 1 0 0 
SMALL
USER_CHARGES


@<TRIPOS>ATOM
  1 O        0.3660     0.1490    -2.3910 O.2   1 <1>  -0.5700 
  2 C        0.0850     0.9460    -1.5270 C.2   1 <1>   0.5690 
  3 N        0.9460     1.3930    -0.5690 N.am  1 <1>  -0.5470 
  4 C       -1.3360     1.5090    -1.4620 C.3   1 <1>   0.1710 
  5 C        2.2820     1.0980    -0.2420 C.ar  1 <1>   0.1170 
  6 N       -1.7290     1.9860    -0.1000 N.3   1 <1>  -0.8100 
  7 C        2.7820     1.4850     1.0040 C.ar  1 <1>  -0.1430 
  8 C        3.1300     0.4400    -1.1280 C.ar  1 <1>  -0.1500 
  9 C       -1.9880     0.8440     0.8080 C.3   1 <1>   0.1100 
 10 C       -2.9380     2.8300    -0.1660 C.3   1 <1>   0.1100 
 11 C        4.0960     1.2000     1.3380 C.ar  1 <1>  -0.1500 
 12 C        1.9050     2.2200     2.0120 C.3   1 <1>  -0.0970 
 13 C        4.4380     0.1600    -0.7840 C.ar  1 <1>  -0.1500 
 14 C       -2.4620     1.3320     2.1880 C.3   1 <1>   0.1200 
 15 C       -3.3860     3.2640     1.2420 C.3   1 <1>   0.1200 
 16 C        4.9320     0.5320     0.4560 C.ar  1 <1>   0.1000 
 17 O       -3.5920     2.1460     2.0570 O.3   1 <1>  -0.5600 
 18 N        6.2380     0.2370     0.8100 N.pl3 1 <1>  -0.9000 
 19 H        0.4620     2.0040     0.0940 H     1 <1>   0.3700 
 20 H       -2.0250     0.7570    -1.8040 H     1 <1>   0.0800 
 21 H       -1.3770     2.3330    -2.1520 H     1 <1>   0.0800 
 22 H        2.7710     0.1440    -2.0960 H     1 <1>   0.1500 
 23 H       -1.0910     0.2620     0.9320 H     1 <1>   0.0800 
 24 H       -2.7460     0.2030     0.3900 H     1 <1>   0.0800 
 25 H       -3.7430     2.2900    -0.6360 H     1 <1>   0.0800 
 26 H       -2.7330     3.7080    -0.7540 H     1 <1>   0.0800 
 27 H        4.4900     1.4970     2.2920 H     1 <1>   0.1500 
 28 H        1.5770     3.1570     1.6000 H     1 <1>   0.0800 
 29 H        2.4460     2.4210     2.9180 H     1 <1>   0.0800 
 30 H        1.0460     1.6220     2.2580 H     1 <1>   0.0800 
 31 H        5.0790    -0.3450    -1.4820 H     1 <1>   0.1500 
 32 H       -1.6870     1.8950     2.6790 H     1 <1>   0.0800 
 33 H       -2.7310     0.4960     2.8080 H     1 <1>   0.0800 
 34 H       -4.3140     3.8060     1.1880 H     1 <1>   0.0800 
 35 H       -2.6420     3.8930     1.6990 H     1 <1>   0.0800 
 36 H        6.6530    -0.5470     0.3010 H     1 <1>   0.4000 
 37 H        6.4040     0.1530     1.8160 H     1 <1>   0.4000 
@<TRIPOS>BOND
  1   1   2  2   
  2   2   3  am  
  3   2   4  1   
  4   3   5  1   
  5   3  19  1   
  6   4   6  1   
  7   4  20  1   
  8   4  21  1   
  9   5   7  ar  
 10   5   8  ar  
 11   6   9  1   
 12   6  10  1   
 13   7  11  ar  
 14   7  12  1   
 15   8  13  ar  
 16   8  22  1   
 17   9  14  1   
 18   9  23  1   
 19   9  24  1   
 20  10  15  1   
 21  10  25  1   
 22  10  26  1   
 23  11  16  ar  
 24  11  27  1   
 25  12  28  1   
 26  12  29  1   
 27  12  30  1   
 28  13  16  ar  
 29  13  31  1   
 30  14  17  1   
 31  14  32  1   
 32  14  33  1   
 33  15  17  1   
 34  15  34  1   
 35  15  35  1   
 36  16  18  1   
 37  18  36  1   
 38  18  37  1   
@<TRIPOS>SUBSTRUCTURE
  1 ****   3 GROUP 4 **** **** 0

# MOE 2024.06 (io_trps.svl 2023.06)
