@<TRIPOS>MOLECULE
N-Isopropyl-N-(3-phenyl-[1,2,4]oxadiazol-5-ylmethyl)-acetamide
36 37 1 0 0 
SMALL
USER_CHARGES


@<TRIPOS>ATOM
  1 O        0.4120     0.9340     1.2790 O.2   1 <1>  -0.5700 
  2 C        0.4870     1.9480     0.6290 C.2   1 <1>   0.5690 
  3 N        1.5380     2.1920    -0.2170 N.am  1 <1>  -0.6600 
  4 C       -0.6410     2.9420     0.7930 C.3   1 <1>  -0.1790 
  5 C        1.6300     3.4210    -1.0670 C.3   1 <1>   0.2200 
  6 C        2.6640     1.1880    -0.2680 C.3   1 <1>   0.3200 
  7 C        2.1900     3.1240    -2.4590 C.3   1 <1>  -0.2400 
  8 C        2.4510     4.5010    -0.3610 C.3   1 <1>  -0.2400 
  9 C        3.9610     1.7070     0.3330 C.2   1 <1>   0.2980 
 10 O        3.9720     2.0560     1.5930 O.3   1 <1>  -0.0190 
 11 N        5.0670     1.8430    -0.2790 N.2   1 <1>  -0.5650 
 12 N        5.1870     2.4550     1.8000 N.2   1 <1>  -0.4100 
 13 C        5.8390     2.3320     0.6980 C.2   1 <1>   0.4620 
 14 C        7.2380     2.6740     0.4970 C.ar  1 <1>   0.0540 
 15 C        7.8660     2.5060    -0.7400 C.ar  1 <1>  -0.1500 
 16 C        8.0140     3.1880     1.5380 C.ar  1 <1>  -0.1500 
 17 C        9.1960     2.8340    -0.9290 C.ar  1 <1>  -0.1500 
 18 C        9.3450     3.5180     1.3570 C.ar  1 <1>  -0.1500 
 19 C        9.9400     3.3420     0.1210 C.ar  1 <1>  -0.1500 
 20 H       -0.2520     3.9090     1.0460 H     1 <1>   0.0800 
 21 H       -1.2920     2.6210     1.5860 H     1 <1>   0.0800 
 22 H       -1.2120     3.0000    -0.1140 H     1 <1>   0.0800 
 23 H        0.6390     3.8120    -1.2160 H     1 <1>   0.0800 
 24 H        2.8410     0.8930    -1.2850 H     1 <1>   0.0800 
 25 H        2.3990     0.2920     0.2630 H     1 <1>   0.0800 
 26 H        3.2320     2.8590    -2.4160 H     1 <1>   0.0800 
 27 H        2.1040     4.0020    -3.0740 H     1 <1>   0.0800 
 28 H        1.6310     2.3330    -2.9260 H     1 <1>   0.0800 
 29 H        3.4950     4.2500    -0.3400 H     1 <1>   0.0800 
 30 H        2.1020     4.6440     0.6450 H     1 <1>   0.0800 
 31 H        2.3500     5.4320    -0.8890 H     1 <1>   0.0800 
 32 H        7.3030     2.1130    -1.5680 H     1 <1>   0.1500 
 33 H        7.5670     3.3310     2.5070 H     1 <1>   0.1500 
 34 H        9.6530     2.6950    -1.8930 H     1 <1>   0.1500 
 35 H        9.9190     3.9120     2.1780 H     1 <1>   0.1500 
 36 H       10.9750     3.5980    -0.0230 H     1 <1>   0.1500 
@<TRIPOS>BOND
  1   1   2  2   
  2   2   3  am  
  3   2   4  1   
  4   3   5  1   
  5   3   6  1   
  6   4  20  1   
  7   4  21  1   
  8   4  22  1   
  9   5   7  1   
 10   5   8  1   
 11   5  23  1   
 12   6   9  1   
 13   6  24  1   
 14   6  25  1   
 15   7  26  1   
 16   7  27  1   
 17   7  28  1   
 18   8  29  1   
 19   8  30  1   
 20   8  31  1   
 21   9  10  1   
 22   9  11  2   
 23  10  12  1   
 24  11  13  1   
 25  12  13  2   
 26  13  14  1   
 27  14  15  ar  
 28  14  16  ar  
 29  15  17  ar  
 30  15  32  1   
 31  16  18  ar  
 32  16  33  1   
 33  17  19  ar  
 34  17  34  1   
 35  18  19  ar  
 36  18  35  1   
 37  19  36  1   
@<TRIPOS>SUBSTRUCTURE
  1 ****  11 GROUP 4 **** **** 0

# MOE 2024.06 (io_trps.svl 2023.06)
