@<TRIPOS>MOLECULE
[2-(4-Methoxy-phenoxy)-ethyl]-methyl-amine
29 29 1 0 0 
SMALL
USER_CHARGES


@<TRIPOS>ATOM
  1 O       -0.1220    -0.3110     0.0000 O.3   1 <1>  -0.3630 
  2 C       -1.3260    -0.9410    -0.0030 C.ar  1 <1>   0.0830 
  3 C        1.0790    -1.0410    -0.0020 C.3   1 <1>   0.1200 
  4 C       -2.4510    -0.1310    -0.0010 C.ar  1 <1>  -0.1500 
  5 C       -1.4790    -2.3260    -0.0070 C.ar  1 <1>  -0.1500 
  6 C        2.2210    -0.0230     0.0010 C.3   1 <1>   0.3430 
  7 C       -3.7190    -0.6850    -0.0030 C.ar  1 <1>  -0.1500 
  8 C       -2.7480    -2.8780    -0.0090 C.ar  1 <1>  -0.1500 
  9 N        3.5630    -0.6860     0.0000 N.4   1 <1>  -0.9060 
 10 C       -3.8730    -2.0680    -0.0070 C.ar  1 <1>   0.0830 
 11 C        4.6760     0.3110     0.0040 C.3   1 <1>   0.2630 
 12 O       -5.0760    -2.6980    -0.0100 O.3   1 <1>  -0.3630 
 13 C       -6.2810    -1.9640    -0.0080 C.3   1 <1>   0.0400 
 14 H        1.0990    -1.6450    -0.8920 H     1 <1>   0.0800 
 15 H        1.0980    -1.6510     0.8840 H     1 <1>   0.0800 
 16 H       -2.3320     0.9370     0.0020 H     1 <1>   0.1500 
 17 H       -0.6390    -2.9920    -0.0090 H     1 <1>   0.1500 
 18 H        2.1260     0.5980     0.8780 H     1 <1>   0.0800 
 19 H        2.1260     0.6030    -0.8710 H     1 <1>   0.0800 
 20 H       -4.5690    -0.0290    -0.0020 H     1 <1>   0.1500 
 21 H       -2.8800    -3.9450    -0.0130 H     1 <1>   0.1500 
 22 H        3.6500    -1.2910    -0.8290 H     1 <1>   0.4500 
 23 H        3.6490    -1.2960     0.8260 H     1 <1>   0.4500 
 24 H        4.6190     0.9410    -0.8710 H     1 <1>   0.0800 
 25 H        5.6300    -0.1910     0.0020 H     1 <1>   0.0800 
 26 H        4.6180     0.9350     0.8820 H     1 <1>   0.0800 
 27 H       -7.0970    -2.6640    -0.0110 H     1 <1>   0.0800 
 28 H       -6.3200    -1.3550    -0.8930 H     1 <1>   0.0800 
 29 H       -6.3210    -1.3600     0.8810 H     1 <1>   0.0800 
@<TRIPOS>BOND
  1   1   2  1   
  2   1   3  1   
  3   2   4  ar  
  4   2   5  ar  
  5   3   6  1   
  6   3  14  1   
  7   3  15  1   
  8   4   7  ar  
  9   4  16  1   
 10   5   8  ar  
 11   5  17  1   
 12   6   9  1   
 13   6  18  1   
 14   6  19  1   
 15   7  10  ar  
 16   7  20  1   
 17   8  10  ar  
 18   8  21  1   
 19   9  11  1   
 20   9  22  1   
 21   9  23  1   
 22  10  12  1   
 23  11  24  1   
 24  11  25  1   
 25  11  26  1   
 26  12  13  1   
 27  13  27  1   
 28  13  28  1   
 29  13  29  1   
@<TRIPOS>SUBSTRUCTURE
  1 ****   2 GROUP 4 **** **** 0

# MOE 2024.06 (io_trps.svl 2023.06)
