@<TRIPOS>MOLECULE
N-(7-Oxo-5-propyl-4,7-dihydro-[1,2,4]triazolo[1,5-a]pyrimidin-2-yl)-3-phenyl-pro
43 45 1 0 0 
SMALL
USER_CHARGES


@<TRIPOS>ATOM
  1 O        0.0130    -0.1540    -0.1360 O.2   1 <1>  -0.5700 
  2 C       -0.2810    -1.3400    -0.0820 C.2   1 <1>   0.5650 
  3 N       -1.6120    -1.8070    -0.1940 N.pl3 1 <1>   0.5610 
  4 C        0.7320    -2.3270     0.1060 C.2   1 <1>  -0.1360 
  5 N       -2.8020    -1.1840    -0.3670 N.2   1 <1>  -0.7070 
  6 C       -1.8750    -3.1340    -0.1080 C.2   1 <1>   0.2700 
  7 C        0.4510    -3.6580     0.1840 C.2   1 <1>  -0.0380 
  8 C       -3.6320    -2.1670    -0.3850 C.2   1 <1>   0.5790 
  9 N       -3.1260    -3.3950    -0.2160 N.2   1 <1>  -0.5650 
 10 N       -0.8620    -4.0610     0.0780 N.pl3 1 <1>  -0.5840 
 11 C        1.4670    -4.7790     0.3830 C.3   1 <1>  -0.0220 
 12 N       -4.9990    -2.0640    -0.5270 N.am  1 <1>  -0.4930 
 13 C        2.9240    -4.3060     0.4980 C.3   1 <1>  -0.1600 
 14 C       -5.7610    -1.0650    -1.0430 C.2   1 <1>   0.5690 
 15 C        3.8790    -5.4880     0.6950 C.3   1 <1>  -0.2400 
 16 O       -5.3250    -0.0680    -1.5600 O.2   1 <1>  -0.5700 
 17 C       -7.2650    -1.2230    -0.9730 C.3   1 <1>  -0.0990 
 18 C       -7.8520    -0.3940     0.1740 C.3   1 <1>  -0.0170 
 19 C       -9.3540    -0.6070     0.2640 C.ar  1 <1>  -0.1440 
 20 C      -10.2100     0.1310    -0.5390 C.ar  1 <1>  -0.1500 
 21 C       -9.8810    -1.5410     1.1430 C.ar  1 <1>  -0.1500 
 22 C      -11.5790    -0.0630    -0.4660 C.ar  1 <1>  -0.1500 
 23 C      -11.2500    -1.7360     1.2170 C.ar  1 <1>  -0.1500 
 24 C      -12.0990    -0.9980     0.4120 C.ar  1 <1>  -0.1500 
 25 H        1.7300    -1.9390     0.1800 H     1 <1>   0.1500 
 26 H       -1.1400    -5.0480     0.1260 H     1 <1>   0.4000 
 27 H        1.3890    -5.4600    -0.4460 H     1 <1>   0.0800 
 28 H        1.2070    -5.3200     1.2770 H     1 <1>   0.0800 
 29 H       -5.4690    -2.9170    -0.2470 H     1 <1>   0.3700 
 30 H        3.0220    -3.6360     1.3350 H     1 <1>   0.0800 
 31 H        3.2040    -3.7770    -0.3970 H     1 <1>   0.0800 
 32 H        3.6380    -6.0240     1.5960 H     1 <1>   0.0800 
 33 H        4.8920    -5.1320     0.7730 H     1 <1>   0.0800 
 34 H        3.8210    -6.1660    -0.1390 H     1 <1>   0.0800 
 35 H       -7.5240    -2.2570    -0.8440 H     1 <1>   0.0800 
 36 H       -7.6870    -0.8910    -1.9050 H     1 <1>   0.0800 
 37 H       -7.6420     0.6500     0.0090 H     1 <1>   0.0800 
 38 H       -7.3870    -0.6730     1.1040 H     1 <1>   0.0800 
 39 H       -9.8140     0.8600    -1.2240 H     1 <1>   0.1500 
 40 H       -9.2320    -2.1200     1.7750 H     1 <1>   0.1500 
 41 H      -12.2380     0.5130    -1.0910 H     1 <1>   0.1500 
 42 H      -11.6540    -2.4610     1.9010 H     1 <1>   0.1500 
 43 H      -13.1630    -1.1490     0.4690 H     1 <1>   0.1500 
@<TRIPOS>BOND
  1   1   2  2   
  2   2   3  1   
  3   2   4  1   
  4   3   5  1   
  5   3   6  1   
  6   4   7  2   
  7   4  25  1   
  8   5   8  2   
  9   6   9  2   
 10   6  10  1   
 11   7  10  1   
 12   7  11  1   
 13   8   9  1   
 14   8  12  1   
 15  10  26  1   
 16  11  13  1   
 17  11  27  1   
 18  11  28  1   
 19  12  14  am  
 20  12  29  1   
 21  13  15  1   
 22  13  30  1   
 23  13  31  1   
 24  14  16  2   
 25  14  17  1   
 26  15  32  1   
 27  15  33  1   
 28  15  34  1   
 29  17  18  1   
 30  17  35  1   
 31  17  36  1   
 32  18  19  1   
 33  18  37  1   
 34  18  38  1   
 35  19  20  ar  
 36  19  21  ar  
 37  20  22  ar  
 38  20  39  1   
 39  21  23  ar  
 40  21  40  1   
 41  22  24  ar  
 42  22  41  1   
 43  23  24  ar  
 44  23  42  1   
 45  24  43  1   
@<TRIPOS>SUBSTRUCTURE
  1 ****   8 GROUP 4 **** **** 0

# MOE 2024.06 (io_trps.svl 2023.06)
