@<TRIPOS>MOLECULE
Cyclopentanecarboxylic acid (3-oxo-3,4-dihydro-2H-benzo[1,4]thiazin-6-yl)-amide
35 37 1 0 0 
SMALL
USER_CHARGES


@<TRIPOS>ATOM
  1 S       -0.5800    -0.1010    -0.4090 S.3   1 <1>  -0.3320 
  2 C       -0.2810     1.6710    -0.3050 C.ar  1 <1>   0.1020 
  3 C       -2.2930    -0.3060     0.2750 C.3   1 <1>   0.1310 
  4 C       -1.0490     2.4740     0.5370 C.ar  1 <1>   0.1170 
  5 C        0.7360     2.1980    -1.0760 C.ar  1 <1>  -0.1500 
  6 C       -2.6190     0.7160     1.3530 C.2   1 <1>   0.5690 
  7 N       -2.0620     1.9550     1.3570 N.am  1 <1>  -0.5470 
  8 C       -0.7710     3.8330     0.5710 C.ar  1 <1>  -0.1500 
  9 C        0.9930     3.5560    -1.0240 C.ar  1 <1>  -0.1500 
 10 O       -3.4210     0.4270     2.2040 O.2   1 <1>  -0.5700 
 11 C        0.2430     4.3910    -0.2000 C.ar  1 <1>   0.1170 
 12 N        0.4590     5.7760    -0.1260 N.am  1 <1>  -0.5470 
 13 C        1.5720     6.5280    -0.3920 C.2   1 <1>   0.5690 
 14 O        2.6270     6.0570    -0.7380 O.2   1 <1>  -0.5700 
 15 C        1.4700     8.0430    -0.2290 C.3   1 <1>  -0.0190 
 16 C        1.1710     8.5130     1.2030 C.3   1 <1>  -0.1600 
 17 C        0.3900     8.7070    -1.0870 C.3   1 <1>  -0.1600 
 18 C        0.3690     9.8140     1.0750 C.3   1 <1>  -0.1600 
 19 C        0.1730    10.0630    -0.4230 C.3   1 <1>  -0.1600 
 20 H       -2.3560    -1.3020     0.6720 H     1 <1>   0.0800 
 21 H       -2.9740    -0.1990    -0.5490 H     1 <1>   0.0800 
 22 H        1.3180     1.5540    -1.7110 H     1 <1>   0.1500 
 23 H       -2.4080     2.5440     2.1140 H     1 <1>   0.3700 
 24 H       -1.3510     4.4680     1.2130 H     1 <1>   0.1500 
 25 H        1.7810     3.9630    -1.6320 H     1 <1>   0.1500 
 26 H       -0.3310     6.3190     0.2140 H     1 <1>   0.3700 
 27 H        2.4170     8.4680    -0.5190 H     1 <1>   0.0800 
 28 H        2.0880     8.6710     1.7450 H     1 <1>   0.0800 
 29 H        0.5850     7.7840     1.7350 H     1 <1>   0.0800 
 30 H       -0.5270     8.1450    -1.0510 H     1 <1>   0.0800 
 31 H        0.7010     8.8070    -2.1130 H     1 <1>   0.0800 
 32 H        0.8880    10.6400     1.5310 H     1 <1>   0.0800 
 33 H       -0.5870     9.7010     1.5560 H     1 <1>   0.0800 
 34 H       -0.7990    10.4700    -0.6420 H     1 <1>   0.0800 
 35 H        0.9260    10.7510    -0.7700 H     1 <1>   0.0800 
@<TRIPOS>BOND
  1   1   2  1   
  2   1   3  1   
  3   2   4  ar  
  4   2   5  ar  
  5   3   6  1   
  6   3  20  1   
  7   3  21  1   
  8   4   7  1   
  9   4   8  ar  
 10   5   9  ar  
 11   5  22  1   
 12   6   7  am  
 13   6  10  2   
 14   7  23  1   
 15   8  11  ar  
 16   8  24  1   
 17   9  11  ar  
 18   9  25  1   
 19  11  12  1   
 20  12  13  am  
 21  12  26  1   
 22  13  14  2   
 23  13  15  1   
 24  15  16  1   
 25  15  17  1   
 26  15  27  1   
 27  16  18  1   
 28  16  28  1   
 29  16  29  1   
 30  17  19  1   
 31  17  30  1   
 32  17  31  1   
 33  18  19  1   
 34  18  32  1   
 35  18  33  1   
 36  19  34  1   
 37  19  35  1   
@<TRIPOS>SUBSTRUCTURE
  1 ****  11 GROUP 4 **** **** 0

# MOE 2024.06 (io_trps.svl 2023.06)
