@<TRIPOS>MOLECULE
4-[(Cyclopentyl-furan-2-ylmethyl-amino)-methyl]-6-ethoxy-chromen-2-one
53 56 1 0 0 
SMALL
USER_CHARGES


@<TRIPOS>ATOM
  1 O        1.0580    -1.2550    -1.1860 O.2   1 <1>  -0.5700 
  2 C        2.1860    -0.8810    -0.9560 C.2   1 <1>   0.7060 
  3 O        2.6680     0.1710    -1.6160 O.3   1 <1>  -0.2330 
  4 C        3.0440    -1.5420    -0.0250 C.2   1 <1>  -0.1360 
  5 C        3.9130     0.6610    -1.4050 C.ar  1 <1>   0.0820 
  6 C        4.3040    -1.1140     0.2170 C.2   1 <1>  -0.1670 
  7 C        4.7660     0.0660    -0.4630 C.ar  1 <1>   0.0280 
  8 C        4.3150     1.7670    -2.1370 C.ar  1 <1>  -0.1500 
  9 C        5.2330    -1.8630     1.1590 C.3   1 <1>   0.4810 
 10 C        6.0080     0.6660    -0.2530 C.ar  1 <1>  -0.1500 
 11 C        5.5660     2.3160    -1.9390 C.ar  1 <1>  -0.1500 
 12 N        6.2990    -2.5450     0.3730 N.4   1 <1>  -0.9590 
 13 C        6.4180     1.7610    -0.9860 C.ar  1 <1>   0.0830 
 14 C        5.7770    -3.4480    -0.6980 C.3   1 <1>   0.4230 
 15 C        7.3520    -3.1060     1.2640 C.3   1 <1>   0.5230 
 16 O        7.6620     2.2300    -0.7180 O.3   1 <1>  -0.3630 
 17 C        5.1970    -4.7510    -0.1450 C.3   1 <1>  -0.1600 
 18 C        6.8810    -3.8900    -1.6550 C.3   1 <1>  -0.1600 
 19 C        8.6620    -2.4630     0.8600 C.2   1 <1>  -0.0400 
 20 C        8.1680     3.3740    -1.3670 C.3   1 <1>   0.1200 
 21 C        6.2690    -5.8400    -0.2940 C.3   1 <1>  -0.1600 
 22 C        7.3780    -5.2580    -1.1770 C.3   1 <1>  -0.1600 
 23 O        8.6770    -1.1550     0.6890 O.3   1 <1>  -0.2800 
 24 C        9.8830    -2.9840     0.6070 C.2   1 <1>  -0.1500 
 25 C        9.5740     3.6330    -0.8340 C.3   1 <1>  -0.2400 
 26 C        9.8950    -0.8100     0.3250 C.2   1 <1>  -0.0100 
 27 C       10.6920    -1.8960     0.2550 C.2   1 <1>  -0.1500 
 28 H        2.6070    -2.4030     0.4480 H     1 <1>   0.1500 
 29 H        3.6420     2.1950    -2.8610 H     1 <1>   0.1500 
 30 H        4.6700    -2.5910     1.7190 H     1 <1>   0.0800 
 31 H        5.6730    -1.1660     1.8560 H     1 <1>   0.0800 
 32 H        6.6850     0.3070     0.4950 H     1 <1>   0.1500 
 33 H        5.8570     3.1700    -2.5240 H     1 <1>   0.1500 
 34 H        6.8030    -1.7910    -0.1200 H     1 <1>   0.4500 
 35 H        5.0220    -2.9240    -1.2630 H     1 <1>   0.0800 
 36 H        7.4180    -4.1750     1.1770 H     1 <1>   0.0800 
 37 H        7.1480    -2.8560     2.2920 H     1 <1>   0.0800 
 38 H        4.3620    -5.0260    -0.7670 H     1 <1>   0.0800 
 39 H        4.8410    -4.6700     0.8660 H     1 <1>   0.0800 
 40 H        7.6750    -3.1700    -1.7530 H     1 <1>   0.0800 
 41 H        6.4360    -4.0220    -2.6260 H     1 <1>   0.0800 
 42 H        7.5200     4.2050    -1.1500 H     1 <1>   0.0800 
 43 H        8.1930     3.1850    -2.4260 H     1 <1>   0.0800 
 44 H        5.8450    -6.7170    -0.7550 H     1 <1>   0.0800 
 45 H        6.6650    -6.1280     0.6650 H     1 <1>   0.0800 
 46 H        8.2860    -5.1530    -0.6110 H     1 <1>   0.0800 
 47 H        7.5830    -5.9040    -2.0160 H     1 <1>   0.0800 
 48 H       10.2200    -4.0060     0.6480 H     1 <1>   0.1500 
 49 H        9.5430     3.8010     0.2280 H     1 <1>   0.0800 
 50 H        9.9860     4.5060    -1.3070 H     1 <1>   0.0800 
 51 H       10.2130     2.7950    -1.0490 H     1 <1>   0.0800 
 52 H       10.1100     0.2300     0.1350 H     1 <1>   0.1500 
 53 H       11.7350    -1.9480    -0.0110 H     1 <1>   0.1500 
@<TRIPOS>BOND
  1   1   2  2   
  2   2   3  1   
  3   2   4  1   
  4   3   5  1   
  5   4   6  2   
  6   4  28  1   
  7   5   7  ar  
  8   5   8  ar  
  9   6   7  1   
 10   6   9  1   
 11   7  10  ar  
 12   8  11  ar  
 13   8  29  1   
 14   9  12  1   
 15   9  30  1   
 16   9  31  1   
 17  10  13  ar  
 18  10  32  1   
 19  11  13  ar  
 20  11  33  1   
 21  12  14  1   
 22  12  15  1   
 23  12  34  1   
 24  13  16  1   
 25  14  17  1   
 26  14  18  1   
 27  14  35  1   
 28  15  19  1   
 29  15  36  1   
 30  15  37  1   
 31  16  20  1   
 32  17  21  1   
 33  17  38  1   
 34  17  39  1   
 35  18  22  1   
 36  18  40  1   
 37  18  41  1   
 38  19  23  1   
 39  19  24  2   
 40  20  25  1   
 41  20  42  1   
 42  20  43  1   
 43  21  22  1   
 44  21  44  1   
 45  21  45  1   
 46  22  46  1   
 47  22  47  1   
 48  23  26  1   
 49  24  27  1   
 50  24  48  1   
 51  25  49  1   
 52  25  50  1   
 53  25  51  1   
 54  26  27  2   
 55  26  52  1   
 56  27  53  1   
@<TRIPOS>SUBSTRUCTURE
  1 ****  12 GROUP 4 **** **** 0

# MOE 2024.06 (io_trps.svl 2023.06)
