@<TRIPOS>MOLECULE
1,6,7-Trimethyl-8-(3-morpholin-4-yl-propyl)-1H,8H-imidazo[2,1-f]purine-2,4-dione
52 55 1 0 0 
SMALL
USER_CHARGES


@<TRIPOS>ATOM
  1 O        0.3030     2.8300     0.6960 O.2   1 <1>  -0.5740 
  2 C        1.4810     2.5790     0.6020 C.2   1 <1>   0.6860 
  3 N        1.9890     1.3040     0.8260 N.am  1 <1>  -0.4410 
  4 N        2.3360     3.5880     0.2640 N.am  1 <1>  -0.4950 
  5 C        3.3560     1.1190     0.6840 C.2   1 <1>   0.4210 
  6 C        1.0860     0.1750     1.1990 C.3   1 <1>   0.0520 
  7 C        3.6850     3.4300     0.1230 C.2   1 <1>   0.6990 
  8 N        4.0610    -0.0420     0.8530 N.pl3 1 <1>  -0.7040 
  9 C        4.2110     2.1200     0.3470 C.2   1 <1>   0.2710 
 10 O        4.3600     4.3930    -0.1800 O.2   1 <1>  -0.5740 
 11 C        5.3460     0.2620     0.6190 C.cat 1 <1>   1.0690 
 12 N        5.4910     1.5420     0.3100 N.pl3 1 <1>  -0.6330 
 13 N        6.5240    -0.3860     0.6250 N.pl3 1 <1>  -0.5720 
 14 C        6.8360     1.7650     0.1160 C.2   1 <1>   0.2340 
 15 C        7.4730     0.5850     0.3130 C.2   1 <1>   0.1580 
 16 C        6.7810    -1.8130     0.9580 C.3   1 <1>   0.1610 
 17 C        7.3420     3.1490    -0.2420 C.3   1 <1>  -0.1090 
 18 C        8.9600     0.2740     0.2420 C.3   1 <1>  -0.1090 
 19 C        6.8970    -2.6490    -0.3260 C.3   1 <1>  -0.1670 
 20 C        7.1870    -4.1370    -0.0730 C.3   1 <1>   0.3370 
 21 N        8.6430    -4.4520    -0.1250 N.4   1 <1>  -0.9610 
 22 C        8.8340    -5.9460    -0.1920 C.3   1 <1>   0.3370 
 23 C        9.4470    -3.8970     1.0200 C.3   1 <1>   0.3370 
 24 C       10.3250    -6.3360    -0.1790 C.3   1 <1>   0.1130 
 25 C       10.9120    -4.3720     0.9740 C.3   1 <1>   0.1130 
 26 O       10.9620    -5.7650     0.9250 O.3   1 <1>  -0.5650 
 27 H        1.9340     4.5100     0.1080 H     1 <1>   0.3640 
 28 H        0.0800     0.5240     1.3620 H     1 <1>   0.0720 
 29 H        1.4300    -0.2870     2.1070 H     1 <1>   0.0720 
 30 H        1.0670    -0.5540     0.4080 H     1 <1>   0.0720 
 31 H        3.6890    -0.9470     1.1250 H     1 <1>   0.4450 
 32 H        5.9750    -2.1890     1.5670 H     1 <1>   0.0720 
 33 H        7.6830    -1.8770     1.5410 H     1 <1>   0.0720 
 34 H        7.0810     3.8490     0.5320 H     1 <1>   0.0720 
 35 H        6.8940     3.4780    -1.1630 H     1 <1>   0.0720 
 36 H        8.4090     3.1560    -0.3620 H     1 <1>   0.0720 
 37 H        9.3070    -0.1020     1.1880 H     1 <1>   0.0720 
 38 H        9.5230     1.1610     0.0130 H     1 <1>   0.0720 
 39 H        9.1570    -0.4510    -0.5250 H     1 <1>   0.0720 
 40 H        7.6370    -2.2400    -0.9910 H     1 <1>   0.0720 
 41 H        5.9480    -2.5970    -0.8310 H     1 <1>   0.0720 
 42 H        6.6930    -4.7070    -0.8450 H     1 <1>   0.0720 
 43 H        6.7730    -4.4470     0.8730 H     1 <1>   0.0720 
 44 H        9.0380    -4.0760    -0.9980 H     1 <1>   0.4450 
 45 H        8.3750    -6.3360    -1.0850 H     1 <1>   0.0720 
 46 H        8.3580    -6.4120     0.6550 H     1 <1>   0.0720 
 47 H        9.0180    -4.2170     1.9550 H     1 <1>   0.0720 
 48 H        9.4320    -2.8210     0.9930 H     1 <1>   0.0720 
 49 H       10.8240    -6.0110    -1.0760 H     1 <1>   0.0720 
 50 H       10.4280    -7.4040    -0.0990 H     1 <1>   0.0720 
 51 H       11.4320    -4.0590     1.8620 H     1 <1>   0.0720 
 52 H       11.4270    -3.9750     0.1160 H     1 <1>   0.0720 
@<TRIPOS>BOND
  1   1   2  2   
  2   2   3  am  
  3   2   4  am  
  4   3   5  1   
  5   3   6  1   
  6   4   7  am  
  7   4  27  1   
  8   5   8  1   
  9   5   9  2   
 10   6  28  1   
 11   6  29  1   
 12   6  30  1   
 13   7   9  1   
 14   7  10  2   
 15   8  11  ar  
 16   8  31  1   
 17   9  12  1   
 18  11  12  ar  
 19  11  13  ar  
 20  12  14  1   
 21  13  15  1   
 22  13  16  1   
 23  14  15  2   
 24  14  17  1   
 25  15  18  1   
 26  16  19  1   
 27  16  32  1   
 28  16  33  1   
 29  17  34  1   
 30  17  35  1   
 31  17  36  1   
 32  18  37  1   
 33  18  38  1   
 34  18  39  1   
 35  19  20  1   
 36  19  40  1   
 37  19  41  1   
 38  20  21  1   
 39  20  42  1   
 40  20  43  1   
 41  21  22  1   
 42  21  23  1   
 43  21  44  1   
 44  22  24  1   
 45  22  45  1   
 46  22  46  1   
 47  23  25  1   
 48  23  47  1   
 49  23  48  1   
 50  24  26  1   
 51  24  49  1   
 52  24  50  1   
 53  25  26  1   
 54  25  51  1   
 55  25  52  1   
@<TRIPOS>SUBSTRUCTURE
  1 ****  13 GROUP 4 **** **** 0

# MOE 2024.06 (io_trps.svl 2023.06)
