@<TRIPOS>MOLECULE
3-(2-Ethoxy-ethyl)-8-(2-methoxy-5-methyl-phenyl)-1-methyl-5,6,7,8-tetrahydro-1H-
58 61 1 0 0 
SMALL
USER_CHARGES


@<TRIPOS>ATOM
  1 O        0.1670    -0.0120     0.7380 O.2   1 <1>  -0.5740 
  2 C        1.2120     0.2980     0.2050 C.2   1 <1>   0.6870 
  3 N        1.3030     1.4850    -0.5150 N.am  1 <1>  -0.4250 
  4 N        2.3210    -0.5260     0.3310 N.am  1 <1>  -0.4410 
  5 C        2.5110     1.9130    -1.0480 C.2   1 <1>   0.7000 
  6 C        0.0720     2.3160    -0.7100 C.3   1 <1>   0.1340 
  7 C        3.5140    -0.0990    -0.2170 C.2   1 <1>   0.4210 
  8 C        2.2370    -1.8220     1.0690 C.3   1 <1>   0.0530 
  9 O        2.6010     2.9820    -1.6280 O.2   1 <1>  -0.5740 
 10 C        3.6530     1.0670    -0.8850 C.2   1 <1>   0.2720 
 11 C       -0.1510     3.2430     0.4850 C.3   1 <1>   0.1140 
 12 N        4.7230    -0.7210    -0.1790 N.pl3 1 <1>  -0.7030 
 13 N        5.0030     1.1460    -1.2560 N.pl3 1 <1>  -0.7670 
 14 O       -1.2640     4.0280     0.2140 O.3   1 <1>  -0.5640 
 15 C        5.6070     0.0510    -0.8040 C.cat 1 <1>   1.0690 
 16 C        5.6800     2.2470    -1.9680 C.3   1 <1>   0.3490 
 17 C       -1.6080     4.8930     1.2430 C.3   1 <1>   0.1140 
 18 N        6.9180    -0.1990    -0.9890 N.pl3 1 <1>  -0.5790 
 19 C        7.1730     2.1970    -1.6280 C.3   1 <1>  -0.1660 
 20 C       -2.8330     5.6790     0.7930 C.3   1 <1>  -0.2460 
 21 C        7.5630    -1.3520    -0.4900 C.ar  1 <1>   0.3060 
 22 C        7.7490     0.7780    -1.7480 C.3   1 <1>   0.1610 
 23 C        7.5510    -1.6780     0.8740 C.ar  1 <1>   0.0760 
 24 C        8.2230    -2.1950    -1.3760 C.ar  1 <1>  -0.1560 
 25 O        6.8910    -0.8460     1.7340 O.3   1 <1>  -0.3670 
 26 C        8.1950    -2.8290     1.3150 C.ar  1 <1>  -0.1560 
 27 C        8.8610    -3.3400    -0.9350 C.ar  1 <1>  -0.1500 
 28 C        7.1850    -0.8590     3.1170 C.3   1 <1>   0.0330 
 29 C        8.8450    -3.6510     0.4130 C.ar  1 <1>  -0.1560 
 30 C        9.5810    -4.2540    -1.9120 C.3   1 <1>  -0.1030 
 31 H       -0.7850     1.6740    -0.8220 H     1 <1>   0.0730 
 32 H        0.1620     2.9080    -1.6040 H     1 <1>   0.0730 
 33 H        1.2180    -2.1710     1.1060 H     1 <1>   0.0730 
 34 H        2.5920    -1.6900     2.0760 H     1 <1>   0.0730 
 35 H        2.8280    -2.5730     0.5750 H     1 <1>   0.0730 
 36 H        0.6950     3.8920     0.6250 H     1 <1>   0.0730 
 37 H       -0.3450     2.6690     1.3750 H     1 <1>   0.0730 
 38 H        4.9980    -1.5510     0.3420 H     1 <1>   0.4460 
 39 H        5.2650     3.1960    -1.6690 H     1 <1>   0.0730 
 40 H        5.5330     2.1270    -3.0290 H     1 <1>   0.0730 
 41 H       -0.7810     5.5560     1.4330 H     1 <1>   0.0730 
 42 H       -1.8300     4.3160     2.1240 H     1 <1>   0.0730 
 43 H        7.3220     2.5570    -0.6250 H     1 <1>   0.0730 
 44 H        7.7100     2.8590    -2.2840 H     1 <1>   0.0730 
 45 H       -2.6050     6.2400    -0.0950 H     1 <1>   0.0730 
 46 H       -3.1300     6.3630     1.5660 H     1 <1>   0.0730 
 47 H       -3.6480     5.0070     0.5950 H     1 <1>   0.0730 
 48 H        7.7780     0.4830    -2.7840 H     1 <1>   0.0730 
 49 H        8.7570     0.7680    -1.3670 H     1 <1>   0.0730 
 50 H        8.2370    -1.9570    -2.4240 H     1 <1>   0.1440 
 51 H        8.2030    -3.1100     2.3530 H     1 <1>   0.1440 
 52 H        6.6880    -0.0220     3.5760 H     1 <1>   0.0730 
 53 H        8.2490    -0.7670     3.2530 H     1 <1>   0.0730 
 54 H        6.8230    -1.7750     3.5490 H     1 <1>   0.0730 
 55 H        9.3420    -4.5400     0.7660 H     1 <1>   0.1440 
 56 H        9.2390    -4.0890    -2.9180 H     1 <1>   0.0730 
 57 H        9.4030    -5.2840    -1.6590 H     1 <1>   0.0730 
 58 H       10.6400    -4.0680    -1.8730 H     1 <1>   0.0730 
@<TRIPOS>BOND
  1   1   2  2   
  2   2   3  am  
  3   2   4  am  
  4   3   5  am  
  5   3   6  1   
  6   4   7  1   
  7   4   8  1   
  8   5   9  2   
  9   5  10  1   
 10   6  11  1   
 11   6  31  1   
 12   6  32  1   
 13   7  10  2   
 14   7  12  1   
 15   8  33  1   
 16   8  34  1   
 17   8  35  1   
 18  10  13  1   
 19  11  14  1   
 20  11  36  1   
 21  11  37  1   
 22  12  15  ar  
 23  12  38  1   
 24  13  15  ar  
 25  13  16  1   
 26  14  17  1   
 27  15  18  ar  
 28  16  19  1   
 29  16  39  1   
 30  16  40  1   
 31  17  20  1   
 32  17  41  1   
 33  17  42  1   
 34  18  21  1   
 35  18  22  1   
 36  19  22  1   
 37  19  43  1   
 38  19  44  1   
 39  20  45  1   
 40  20  46  1   
 41  20  47  1   
 42  21  23  ar  
 43  21  24  ar  
 44  22  48  1   
 45  22  49  1   
 46  23  25  1   
 47  23  26  ar  
 48  24  27  ar  
 49  24  50  1   
 50  25  28  1   
 51  26  29  ar  
 52  26  51  1   
 53  27  29  ar  
 54  27  30  1   
 55  28  52  1   
 56  28  53  1   
 57  28  54  1   
 58  29  55  1   
 59  30  56  1   
 60  30  57  1   
 61  30  58  1   
@<TRIPOS>SUBSTRUCTURE
  1 ****   7 GROUP 4 **** **** 0

# MOE 2024.06 (io_trps.svl 2023.06)
