@<TRIPOS>MOLECULE
1,3-Dicyclohexyl-1-[3-(3,4-dimethoxy-phenyl)-[1,2,4]oxadiazol-5-ylmethyl]-urea
66 69 1 0 0 
SMALL
USER_CHARGES


@<TRIPOS>ATOM
  1 O        0.6040    -0.1970     0.2490 O.2   1 <1>  -0.5700 
  2 C        0.6370     0.9980     0.4740 C.2   1 <1>   0.6900 
  3 N        1.7500     1.5750     1.0240 N.am  1 <1>  -0.6600 
  4 N       -0.4290     1.7720     0.1600 N.am  1 <1>  -0.7300 
  5 C        1.6900     2.9080     1.7020 C.3   1 <1>   0.2200 
  6 C        3.0400     0.8020     1.0160 C.3   1 <1>   0.3200 
  7 C       -1.6590     1.3090    -0.4960 C.3   1 <1>   0.2200 
  8 C        2.0710     4.0360     0.7310 C.3   1 <1>  -0.1600 
  9 C        2.5350     2.9790     2.9840 C.3   1 <1>  -0.1600 
 10 C        4.1320     1.4850     0.2060 C.2   1 <1>   0.2980 
 11 C       -1.6600     1.7990    -1.9480 C.3   1 <1>  -0.1600 
 12 C       -2.8640     1.8550     0.2760 C.3   1 <1>  -0.1600 
 13 C        1.9130     5.4090     1.4020 C.3   1 <1>  -0.1600 
 14 C        2.3750     4.3470     3.6630 C.3   1 <1>  -0.1600 
 15 O        3.9430     1.6570    -1.0760 O.3   1 <1>  -0.0190 
 16 N        5.2370     1.9210     0.6570 N.2   1 <1>  -0.5650 
 17 C       -2.9750     1.4400    -2.6540 C.3   1 <1>  -0.1600 
 18 C       -4.1820     1.4970    -0.4260 C.3   1 <1>  -0.1600 
 19 C        2.7320     5.4870     2.6980 C.3   1 <1>  -0.1600 
 20 N        5.0180     2.2610    -1.4750 N.2   1 <1>  -0.4100 
 21 C        5.7860     2.4200    -0.4550 C.2   1 <1>   0.4620 
 22 C       -4.1860     1.9830    -1.8820 C.3   1 <1>  -0.1600 
 23 C        7.0900     3.0590    -0.4660 C.ar  1 <1>   0.0540 
 24 C        7.6820     3.4750    -1.6610 C.ar  1 <1>  -0.1500 
 25 C        7.8040     3.2910     0.7130 C.ar  1 <1>  -0.1500 
 26 C        8.9200     4.0900    -1.6860 C.ar  1 <1>   0.0820 
 27 C        9.0500     3.8920     0.7010 C.ar  1 <1>  -0.1500 
 28 O        9.3940     4.4900    -2.8910 O.3   1 <1>  -0.3630 
 29 C        9.6270     4.2810    -0.4940 C.ar  1 <1>   0.0820 
 30 C        9.4890     5.8840    -3.0890 C.3   1 <1>   0.0400 
 31 O       10.8640     4.8300    -0.4430 O.3   1 <1>  -0.3630 
 32 C       11.9010     4.1190    -1.0830 C.3   1 <1>   0.0400 
 33 H       -0.3030     2.7780     0.1970 H     1 <1>   0.3700 
 34 H        0.6710     3.0750     2.0090 H     1 <1>   0.0800 
 35 H        2.8980    -0.1770     0.5960 H     1 <1>   0.0800 
 36 H        3.3810     0.6590     2.0240 H     1 <1>   0.0800 
 37 H       -1.6950     0.2320    -0.4870 H     1 <1>   0.0800 
 38 H        1.4500     3.9940    -0.1460 H     1 <1>   0.0800 
 39 H        3.0940     3.9290     0.4230 H     1 <1>   0.0800 
 40 H        3.5760     2.8430     2.7540 H     1 <1>   0.0800 
 41 H        2.2220     2.2070     3.6650 H     1 <1>   0.0800 
 42 H       -0.8380     1.3440    -2.4740 H     1 <1>   0.0800 
 43 H       -1.5300     2.8670    -1.9700 H     1 <1>   0.0800 
 44 H       -2.7890     2.9260     0.3520 H     1 <1>   0.0800 
 45 H       -2.8660     1.4400     1.2690 H     1 <1>   0.0800 
 46 H        0.8740     5.5840     1.6250 H     1 <1>   0.0800 
 47 H        2.2390     6.1800     0.7240 H     1 <1>   0.0800 
 48 H        3.0120     4.3960     4.5290 H     1 <1>   0.0800 
 49 H        1.3580     4.4660     3.9950 H     1 <1>   0.0800 
 50 H       -3.0540     0.3690    -2.7340 H     1 <1>   0.0800 
 51 H       -2.9710     1.8450    -3.6520 H     1 <1>   0.0800 
 52 H       -5.0070     1.9400     0.1050 H     1 <1>   0.0800 
 53 H       -4.3160     0.4280    -0.4080 H     1 <1>   0.0800 
 54 H        2.5570     6.4340     3.1790 H     1 <1>   0.0800 
 55 H        3.7810     5.4320     2.4580 H     1 <1>   0.0800 
 56 H       -5.0930     1.6640    -2.3660 H     1 <1>   0.0800 
 57 H       -4.1650     3.0590    -1.8990 H     1 <1>   0.0800 
 58 H        7.1660     3.3230    -2.5920 H     1 <1>   0.1500 
 59 H        7.3790     2.9930     1.6560 H     1 <1>   0.1500 
 60 H        9.5850     4.0560     1.6190 H     1 <1>   0.1500 
 61 H        9.8050     6.0580    -4.1020 H     1 <1>   0.0800 
 62 H       10.2080     6.2940    -2.4040 H     1 <1>   0.0800 
 63 H        8.5210     6.3240    -2.9240 H     1 <1>   0.0800 
 64 H       12.8340     4.5940    -0.8400 H     1 <1>   0.0800 
 65 H       11.7460     4.1400    -2.1470 H     1 <1>   0.0800 
 66 H       11.8990     3.1040    -0.7260 H     1 <1>   0.0800 
@<TRIPOS>BOND
  1   1   2  2   
  2   2   3  am  
  3   2   4  am  
  4   3   5  1   
  5   3   6  1   
  6   4   7  1   
  7   4  33  1   
  8   5   8  1   
  9   5   9  1   
 10   5  34  1   
 11   6  10  1   
 12   6  35  1   
 13   6  36  1   
 14   7  11  1   
 15   7  12  1   
 16   7  37  1   
 17   8  13  1   
 18   8  38  1   
 19   8  39  1   
 20   9  14  1   
 21   9  40  1   
 22   9  41  1   
 23  10  15  1   
 24  10  16  2   
 25  11  17  1   
 26  11  42  1   
 27  11  43  1   
 28  12  18  1   
 29  12  44  1   
 30  12  45  1   
 31  13  19  1   
 32  13  46  1   
 33  13  47  1   
 34  14  19  1   
 35  14  48  1   
 36  14  49  1   
 37  15  20  1   
 38  16  21  1   
 39  17  22  1   
 40  17  50  1   
 41  17  51  1   
 42  18  22  1   
 43  18  52  1   
 44  18  53  1   
 45  19  54  1   
 46  19  55  1   
 47  20  21  2   
 48  21  23  1   
 49  22  56  1   
 50  22  57  1   
 51  23  24  ar  
 52  23  25  ar  
 53  24  26  ar  
 54  24  58  1   
 55  25  27  ar  
 56  25  59  1   
 57  26  28  1   
 58  26  29  ar  
 59  27  29  ar  
 60  27  60  1   
 61  28  30  1   
 62  29  31  1   
 63  30  61  1   
 64  30  62  1   
 65  30  63  1   
 66  31  32  1   
 67  32  64  1   
 68  32  65  1   
 69  32  66  1   
@<TRIPOS>SUBSTRUCTURE
  1 ****  10 GROUP 4 **** **** 0

# MOE 2024.06 (io_trps.svl 2023.06)
