@<TRIPOS>MOLECULE
5-(3-Methoxy-phenyl)-2-propylsulfanyl-5,8-dihydro-3H,6H-pyrido[2,3-d]pyrimidine-
43 45 1 0 0 
SMALL
USER_CHARGES


@<TRIPOS>ATOM
  1 S       -0.0700     0.8270     0.9070 S.3   1 <1>  -0.3710 
  2 C        1.5090     1.4570     0.4000 C.2   1 <1>   0.6410 
  3 C       -1.3010     1.6810    -0.1800 C.3   1 <1>   0.0700 
  4 N        2.5440     0.9770     1.1300 N.pl3 1 <1>  -0.5500 
  5 N        1.5970     2.2800    -0.5740 N.2   1 <1>  -0.6610 
  6 C       -1.6070     3.0540     0.4230 C.3   1 <1>  -0.1600 
  7 C        3.8090     1.3870     0.8580 C.2   1 <1>   0.2090 
  8 C        2.8550     2.7120    -0.8880 C.2   1 <1>   0.7670 
  9 C       -2.6330     3.8130    -0.4240 C.3   1 <1>  -0.2400 
 10 N        4.8570     0.8920     1.5920 N.am  1 <1>  -0.5390 
 11 C        3.9830     2.2820    -0.1470 C.2   1 <1>  -0.1240 
 12 O        2.9700     3.4570    -1.8530 O.2   1 <1>  -0.5700 
 13 C        6.1590     1.1280     1.2880 C.2   1 <1>   0.5690 
 14 C        5.3720     2.8300    -0.4540 C.3   1 <1>   0.2020 
 15 O        7.0370     0.7420     2.0110 O.2   1 <1>  -0.5700 
 16 C        6.4880     1.8660     0.0040 C.3   1 <1>  -0.0990 
 17 C        5.5280     4.2160     0.1750 C.ar  1 <1>  -0.1430 
 18 C        5.5690     5.3320    -0.6470 C.ar  1 <1>  -0.1500 
 19 C        5.6200     4.3980     1.5500 C.ar  1 <1>  -0.1500 
 20 C        5.7120     6.6060    -0.1220 C.ar  1 <1>   0.0820 
 21 C        5.7620     5.6660     2.0850 C.ar  1 <1>  -0.1500 
 22 O        5.7470     7.6320    -1.0090 O.3   1 <1>  -0.3630 
 23 C        5.8110     6.7710     1.2560 C.ar  1 <1>  -0.1500 
 24 C        5.8040     8.9720    -0.5760 C.3   1 <1>   0.0400 
 25 H       -2.1800     1.0610    -0.2070 H     1 <1>   0.0800 
 26 H       -0.8780     1.7580    -1.1670 H     1 <1>   0.0800 
 27 H        2.3210     0.3140     1.8700 H     1 <1>   0.4000 
 28 H       -0.7000     3.6320     0.4760 H     1 <1>   0.0800 
 29 H       -1.9880     2.9290     1.4210 H     1 <1>   0.0800 
 30 H       -2.2560     3.9670    -1.4200 H     1 <1>   0.0800 
 31 H       -2.8330     4.7740     0.0170 H     1 <1>   0.0800 
 32 H       -3.5570     3.2640    -0.4810 H     1 <1>   0.0800 
 33 H        4.7060     0.3370     2.4340 H     1 <1>   0.3700 
 34 H        5.4710     2.9320    -1.5220 H     1 <1>   0.0800 
 35 H        6.6400     1.1240    -0.7570 H     1 <1>   0.0800 
 36 H        7.4120     2.4030     0.1240 H     1 <1>   0.0800 
 37 H        5.4810     5.2340    -1.7150 H     1 <1>   0.1500 
 38 H        5.5820     3.5620     2.2250 H     1 <1>   0.1500 
 39 H        5.8360     5.7920     3.1510 H     1 <1>   0.1500 
 40 H        5.9240     7.7430     1.6960 H     1 <1>   0.1500 
 41 H        5.7880     9.6040    -1.4460 H     1 <1>   0.0800 
 42 H        6.7180     9.1240    -0.0300 H     1 <1>   0.0800 
 43 H        4.9460     9.1760     0.0400 H     1 <1>   0.0800 
@<TRIPOS>BOND
  1   1   2  1   
  2   1   3  1   
  3   2   4  1   
  4   2   5  2   
  5   3   6  1   
  6   3  25  1   
  7   3  26  1   
  8   4   7  1   
  9   4  27  1   
 10   5   8  1   
 11   6   9  1   
 12   6  28  1   
 13   6  29  1   
 14   7  10  1   
 15   7  11  2   
 16   8  11  1   
 17   8  12  2   
 18   9  30  1   
 19   9  31  1   
 20   9  32  1   
 21  10  13  am  
 22  10  33  1   
 23  11  14  1   
 24  13  15  2   
 25  13  16  1   
 26  14  16  1   
 27  14  17  1   
 28  14  34  1   
 29  16  35  1   
 30  16  36  1   
 31  17  18  ar  
 32  17  19  ar  
 33  18  20  ar  
 34  18  37  1   
 35  19  21  ar  
 36  19  38  1   
 37  20  22  1   
 38  20  23  ar  
 39  21  23  ar  
 40  21  39  1   
 41  22  24  1   
 42  23  40  1   
 43  24  41  1   
 44  24  42  1   
 45  24  43  1   
@<TRIPOS>SUBSTRUCTURE
  1 ****  11 GROUP 4 **** **** 0

# MOE 2024.06 (io_trps.svl 2023.06)
