@<TRIPOS>MOLECULE
1-(3,4-Diethoxy-phenyl)-ethylamine
35 35 1 0 0 
SMALL
USER_CHARGES


@<TRIPOS>ATOM
  1 O       -0.0770    -0.7460     1.1280 O.3   1 <1>  -0.3630 
  2 C       -1.1900    -0.5650     0.3750 C.ar  1 <1>   0.0830 
  3 C        1.1420    -1.0010     0.4590 C.3   1 <1>   0.1200 
  4 C       -1.7300    -1.5570    -0.4490 C.ar  1 <1>   0.0820 
  5 C       -1.8020     0.6740     0.4500 C.ar  1 <1>  -0.1500 
  6 C        1.7190     0.3170    -0.0560 C.3   1 <1>  -0.2400 
  7 O       -1.2170    -2.8070    -0.5430 O.3   1 <1>  -0.3620 
  8 C       -2.8430    -1.2680    -1.2170 C.ar  1 <1>  -0.1500 
  9 C       -2.9320     0.9590    -0.3050 C.ar  1 <1>  -0.1440 
 10 C       -1.2450    -3.6040     0.6190 C.3   1 <1>   0.1200 
 11 C       -3.4440    -0.0220    -1.1490 C.ar  1 <1>  -0.1500 
 12 C       -3.5680     2.3300    -0.1640 C.3   1 <1>   0.5660 
 13 C       -0.7450    -4.9960     0.2470 C.3   1 <1>  -0.2400 
 14 N       -4.7960     2.1440     0.6000 N.4   1 <1>  -0.8530 
 15 C       -3.9080     2.9860    -1.4970 C.3   1 <1>  -0.2400 
 16 H        0.9770    -1.6940    -0.3470 H     1 <1>   0.0800 
 17 H        1.8130    -1.4490     1.1720 H     1 <1>   0.0800 
 18 H       -1.3630     1.4050     1.1070 H     1 <1>   0.1500 
 19 H        1.0660     0.7500    -0.7920 H     1 <1>   0.0800 
 20 H        2.6730     0.1350    -0.5170 H     1 <1>   0.0800 
 21 H        1.8590     1.0050     0.7580 H     1 <1>   0.0800 
 22 H       -3.2350    -2.0320    -1.8680 H     1 <1>   0.1500 
 23 H       -2.2580    -3.6440     0.9800 H     1 <1>   0.0800 
 24 H       -0.6100    -3.1610     1.3660 H     1 <1>   0.0800 
 25 H       -4.3070     0.1530    -1.7670 H     1 <1>   0.1500 
 26 H       -2.8930     2.9730     0.3810 H     1 <1>   0.0800 
 27 H       -1.3810    -5.4290    -0.5040 H     1 <1>   0.0800 
 28 H       -0.7580    -5.6310     1.1150 H     1 <1>   0.0800 
 29 H        0.2620    -4.9410    -0.1230 H     1 <1>   0.0800 
 30 H       -5.4180     1.5200     0.0810 H     1 <1>   0.4500 
 31 H       -5.2670     3.0340     0.7790 H     1 <1>   0.4500 
 32 H       -4.5660     1.6830     1.4860 H     1 <1>   0.4500 
 33 H       -4.6370     2.4230    -2.0510 H     1 <1>   0.0800 
 34 H       -3.0140     3.0510    -2.0950 H     1 <1>   0.0800 
 35 H       -4.2710     3.9870    -1.3450 H     1 <1>   0.0800 
@<TRIPOS>BOND
  1   1   2  1   
  2   1   3  1   
  3   2   4  ar  
  4   2   5  ar  
  5   3   6  1   
  6   3  16  1   
  7   3  17  1   
  8   4   7  1   
  9   4   8  ar  
 10   5   9  ar  
 11   5  18  1   
 12   6  19  1   
 13   6  20  1   
 14   6  21  1   
 15   7  10  1   
 16   8  11  ar  
 17   8  22  1   
 18   9  11  ar  
 19   9  12  1   
 20  10  13  1   
 21  10  23  1   
 22  10  24  1   
 23  11  25  1   
 24  12  14  1   
 25  12  15  1   
 26  12  26  1   
 27  13  27  1   
 28  13  28  1   
 29  13  29  1   
 30  14  30  1   
 31  14  31  1   
 32  14  32  1   
 33  15  33  1   
 34  15  34  1   
 35  15  35  1   
@<TRIPOS>SUBSTRUCTURE
  1 ****   2 GROUP 4 **** **** 0

# MOE 2024.06 (io_trps.svl 2023.06)
