@<TRIPOS>MOLECULE
2-(4-Ethoxy-3-methoxy-phenyl)-7-methyl-5-propyl-1,3-diaza-tricyclo[3.3.1.1*3,7*]
57 60 1 0 0 
SMALL
USER_CHARGES


@<TRIPOS>ATOM
  1 O       -0.2220    -0.9000    -0.6340 O.2   1 <1>  -0.5700 
  2 C        0.8350    -1.3740    -0.3470 C.2   1 <1>   0.4480 
  3 C        1.2880    -2.7670    -0.7940 C.3   1 <1>   0.0610 
  4 C        1.8400    -0.6480     0.5480 C.3   1 <1>   0.0610 
  5 C        1.5210    -3.5820     0.4830 C.3   1 <1>   0.3430 
  6 C        2.6610    -2.6020    -1.4610 C.3   1 <1>   0.1100 
  7 C        0.3170    -3.4860    -1.7660 C.3   1 <1>  -0.1600 
  8 C        2.0210    -1.5340     1.7860 C.3   1 <1>   0.3430 
  9 C        3.1880    -0.6070    -0.1870 C.3   1 <1>   0.1100 
 10 C        1.3970     0.7740     0.9500 C.3   1 <1>  -0.2400 
 11 N        2.5150    -2.8900     1.3770 N.4   1 <1>  -0.9590 
 12 N        3.6060    -1.9860    -0.5000 N.3   1 <1>  -0.8100 
 13 C       -1.0190    -3.9350    -1.1440 C.3   1 <1>  -0.1600 
 14 C        3.8390    -2.7830     0.7150 C.3   1 <1>   0.8360 
 15 C       -1.9200    -4.5690    -2.2070 C.3   1 <1>  -0.2400 
 16 C        4.4510    -4.1660     0.4390 C.ar  1 <1>  -0.1440 
 17 C        5.2820    -4.3520    -0.6600 C.ar  1 <1>  -0.1500 
 18 C        4.2310    -5.2570     1.2750 C.ar  1 <1>  -0.1500 
 19 C        5.8530    -5.5770    -0.9580 C.ar  1 <1>   0.0820 
 20 C        4.7910    -6.4910     0.9950 C.ar  1 <1>  -0.1500 
 21 O        6.6300    -5.5680    -2.0790 O.3   1 <1>  -0.3620 
 22 C        5.5980    -6.6780    -0.1240 C.ar  1 <1>   0.0820 
 23 C        7.6060    -6.5520    -2.3420 C.3   1 <1>   0.0400 
 24 O        6.1230    -7.9010    -0.4200 O.3   1 <1>  -0.3630 
 25 C        5.9540    -9.0310     0.4040 C.3   1 <1>   0.1200 
 26 C        6.7160   -10.1910    -0.2290 C.3   1 <1>  -0.2400 
 27 H        1.8840    -4.5610     0.2130 H     1 <1>   0.0800 
 28 H        0.5840    -3.7020     1.0030 H     1 <1>   0.0800 
 29 H        3.0340    -3.5580    -1.7900 H     1 <1>   0.0800 
 30 H        2.5740    -1.9760    -2.3350 H     1 <1>   0.0800 
 31 H        0.8040    -4.3570    -2.1740 H     1 <1>   0.0800 
 32 H        0.1080    -2.8250    -2.5910 H     1 <1>   0.0800 
 33 H        1.0760    -1.6230     2.2990 H     1 <1>   0.0800 
 34 H        2.7260    -1.0700     2.4560 H     1 <1>   0.0800 
 35 H        3.9390    -0.1270     0.4190 H     1 <1>   0.0800 
 36 H        3.0960    -0.0390    -1.1000 H     1 <1>   0.0800 
 37 H        0.4560     0.7450     1.4730 H     1 <1>   0.0800 
 38 H        1.2630     1.3830     0.0710 H     1 <1>   0.0800 
 39 H        2.1270     1.2480     1.5820 H     1 <1>   0.0800 
 40 H        2.6720    -3.4640     2.2090 H     1 <1>   0.4500 
 41 H       -1.5390    -3.0920    -0.7200 H     1 <1>   0.0800 
 42 H       -0.8570    -4.6590    -0.3650 H     1 <1>   0.0800 
 43 H        4.5220    -2.2430     1.3520 H     1 <1>   0.0800 
 44 H       -2.1380    -3.8610    -2.9880 H     1 <1>   0.0800 
 45 H       -2.8510    -4.8780    -1.7640 H     1 <1>   0.0800 
 46 H       -1.4480    -5.4320    -2.6430 H     1 <1>   0.0800 
 47 H        5.5090    -3.5330    -1.3220 H     1 <1>   0.1500 
 48 H        3.6300    -5.1810     2.1620 H     1 <1>   0.1500 
 49 H        4.5840    -7.3030     1.6670 H     1 <1>   0.1500 
 50 H        7.1140    -7.4610    -2.6390 H     1 <1>   0.0800 
 51 H        8.1970    -6.7070    -1.4560 H     1 <1>   0.0800 
 52 H        8.2300    -6.1990    -3.1430 H     1 <1>   0.0800 
 53 H        4.9030    -9.2560     0.4650 H     1 <1>   0.0800 
 54 H        6.3490    -8.8060     1.3800 H     1 <1>   0.0800 
 55 H        6.3270   -10.3970    -1.2100 H     1 <1>   0.0800 
 56 H        6.6060   -11.0730     0.3760 H     1 <1>   0.0800 
 57 H        7.7620    -9.9520    -0.2990 H     1 <1>   0.0800 
@<TRIPOS>BOND
  1   1   2  2   
  2   2   3  1   
  3   2   4  1   
  4   3   5  1   
  5   3   6  1   
  6   3   7  1   
  7   4   8  1   
  8   4   9  1   
  9   4  10  1   
 10   5  11  1   
 11   5  27  1   
 12   5  28  1   
 13   6  12  1   
 14   6  29  1   
 15   6  30  1   
 16   7  13  1   
 17   7  31  1   
 18   7  32  1   
 19   8  11  1   
 20   8  33  1   
 21   8  34  1   
 22   9  12  1   
 23   9  35  1   
 24   9  36  1   
 25  10  37  1   
 26  10  38  1   
 27  10  39  1   
 28  11  14  1   
 29  11  40  1   
 30  12  14  1   
 31  13  15  1   
 32  13  41  1   
 33  13  42  1   
 34  14  16  1   
 35  14  43  1   
 36  15  44  1   
 37  15  45  1   
 38  15  46  1   
 39  16  17  ar  
 40  16  18  ar  
 41  17  19  ar  
 42  17  47  1   
 43  18  20  ar  
 44  18  48  1   
 45  19  21  1   
 46  19  22  ar  
 47  20  22  ar  
 48  20  49  1   
 49  21  23  1   
 50  22  24  1   
 51  23  50  1   
 52  23  51  1   
 53  23  52  1   
 54  24  25  1   
 55  25  26  1   
 56  25  53  1   
 57  25  54  1   
 58  26  55  1   
 59  26  56  1   
 60  26  57  1   
@<TRIPOS>SUBSTRUCTURE
  1 ****  16 GROUP 4 **** **** 0

# MOE 2024.06 (io_trps.svl 2023.06)
