@<TRIPOS>MOLECULE
Furan-2-carboxylic acid {2-[4-(furan-2-carbonyl)-piperazin-1-yl]-2-oxo-ethyl}-am
41 43 1 0 0 
SMALL
USER_CHARGES


@<TRIPOS>ATOM
  1 O       -0.2570     0.8900    -0.8680 O.2   1 <1>  -0.5700 
  2 C       -0.1330     1.9580    -0.2920 C.2   1 <1>   0.7150 
  3 N       -1.2520     2.5040     0.3080 N.am  1 <1>  -0.6600 
  4 C        1.1530     2.6230    -0.2400 C.2   1 <1>   0.0550 
  5 C       -2.4940     1.6980     0.5120 C.3   1 <1>   0.1400 
  6 C       -1.4780     3.9800     0.3990 C.3   1 <1>   0.1400 
  7 O        1.9860     2.5910    -1.2760 O.3   1 <1>  -0.2800 
  8 C        1.7400     3.3480     0.7550 C.2   1 <1>  -0.1500 
  9 C       -3.5860     2.1290    -0.4780 C.3   1 <1>   0.1400 
 10 C       -2.5900     4.4230    -0.5670 C.3   1 <1>   0.1400 
 11 C        3.0720     3.2650    -0.9740 C.2   1 <1>  -0.0100 
 12 C        2.9830     3.7640     0.2770 C.2   1 <1>  -0.1500 
 13 N       -3.8310     3.6050    -0.3810 N.am  1 <1>  -0.6600 
 14 C       -5.0440     4.1970    -0.1240 C.2   1 <1>   0.5690 
 15 O       -5.1450     5.3980    -0.0040 O.2   1 <1>  -0.5700 
 16 C       -6.3140     3.3460     0.0200 C.3   1 <1>   0.2010 
 17 N       -7.5530     4.1460     0.2380 N.am  1 <1>  -0.7300 
 18 C       -8.8520     3.7380     0.2000 C.2   1 <1>   0.7150 
 19 O       -9.6850     4.6220     0.2480 O.2   1 <1>  -0.5700 
 20 C       -9.2650     2.3510     0.1040 C.2   1 <1>   0.0550 
 21 O       -8.4010     1.3340     0.0990 O.3   1 <1>  -0.2800 
 22 C      -10.5230     1.8350     0.0100 C.2   1 <1>  -0.1500 
 23 C       -9.0690     0.2060     0.0050 C.2   1 <1>  -0.0100 
 24 C      -10.3950     0.4470    -0.0540 C.2   1 <1>  -0.1500 
 25 H       -2.8450     1.8420     1.5190 H     1 <1>   0.0800 
 26 H       -2.2890     0.6490     0.3860 H     1 <1>   0.0800 
 27 H       -0.5820     4.5230     0.1590 H     1 <1>   0.0800 
 28 H       -1.7620     4.2350     1.4060 H     1 <1>   0.0800 
 29 H        1.3450     3.5640     1.7320 H     1 <1>   0.1500 
 30 H       -4.4800     1.5680    -0.2770 H     1 <1>   0.0800 
 31 H       -3.2640     1.8890    -1.4770 H     1 <1>   0.0800 
 32 H       -2.2440     4.3080    -1.5800 H     1 <1>   0.0800 
 33 H       -2.7950     5.4680    -0.4110 H     1 <1>   0.0800 
 34 H        3.8600     3.3390    -1.7030 H     1 <1>   0.1500 
 35 H        3.7030     4.3560     0.8150 H     1 <1>   0.1500 
 36 H       -6.1860     2.6800     0.8530 H     1 <1>   0.0800 
 37 H       -6.4330     2.7620    -0.8750 H     1 <1>   0.0800 
 38 H       -7.3920     5.1590     0.2790 H     1 <1>   0.3700 
 39 H      -11.4480     2.3850    -0.0100 H     1 <1>   0.1500 
 40 H       -8.5300    -0.7250    -0.0120 H     1 <1>   0.1500 
 41 H      -11.2050    -0.2560    -0.1330 H     1 <1>   0.1500 
@<TRIPOS>BOND
  1   1   2  2   
  2   2   3  am  
  3   2   4  1   
  4   3   5  1   
  5   3   6  1   
  6   4   7  1   
  7   4   8  2   
  8   5   9  1   
  9   5  25  1   
 10   5  26  1   
 11   6  10  1   
 12   6  27  1   
 13   6  28  1   
 14   7  11  1   
 15   8  12  1   
 16   8  29  1   
 17   9  13  1   
 18   9  30  1   
 19   9  31  1   
 20  10  13  1   
 21  10  32  1   
 22  10  33  1   
 23  11  12  2   
 24  11  34  1   
 25  12  35  1   
 26  13  14  am  
 27  14  15  2   
 28  14  16  1   
 29  16  17  1   
 30  16  36  1   
 31  16  37  1   
 32  17  18  am  
 33  17  38  1   
 34  18  19  2   
 35  18  20  1   
 36  20  21  1   
 37  20  22  2   
 38  21  23  1   
 39  22  24  1   
 40  22  39  1   
 41  23  24  2   
 42  23  40  1   
 43  24  41  1   
@<TRIPOS>SUBSTRUCTURE
  1 ****  13 GROUP 4 **** **** 0

# MOE 2024.06 (io_trps.svl 2023.06)
