@<TRIPOS>MOLECULE
3-((E)-But-2-enyl)-8-(2-methoxy-5-methyl-phenyl)-1-methyl-5,6,7,8-tetrahydro-1H-
55 58 1 0 0 
SMALL
USER_CHARGES


@<TRIPOS>ATOM
  1 O        1.0980     1.9600     2.5510 O.2   1 <1>  -0.5740 
  2 C        1.9180     1.9400     1.6550 C.2   1 <1>   0.6870 
  3 N        2.0190     3.0040     0.7670 N.am  1 <1>  -0.4250 
  4 N        2.7780     0.8550     1.5380 N.am  1 <1>  -0.4410 
  5 C        3.0240     3.0590    -0.1840 C.2   1 <1>   0.7000 
  6 C        0.9540     4.0380     0.7500 C.3   1 <1>   0.2720 
  7 C        3.7620     0.9080     0.5710 C.2   1 <1>   0.4210 
  8 C        2.6560    -0.3220     2.4480 C.3   1 <1>   0.0530 
  9 O        3.1460     4.0270    -0.9170 O.2   1 <1>  -0.5740 
 10 C        3.9220     1.9500    -0.2730 C.2   1 <1>   0.2710 
 11 C       -0.0440     3.6830    -0.3360 C.2   1 <1>  -0.2940 
 12 N        4.7240    -0.0160     0.3050 N.pl3 1 <1>  -0.7030 
 13 N        5.0320     1.6370    -1.0720 N.pl3 1 <1>  -0.7670 
 14 C       -1.2740     3.2110    -0.1160 C.2   1 <1>  -0.2940 
 15 C        5.4820     0.4480    -0.6840 C.cat 1 <1>   1.0690 
 16 C        5.6470     2.4680    -2.1240 C.3   1 <1>   0.3490 
 17 C       -2.2690     2.8610    -1.2050 C.3   1 <1>  -0.1090 
 18 N        6.5440    -0.1610    -1.2500 N.pl3 1 <1>  -0.5790 
 19 C        7.1070     2.0350    -2.2900 C.3   1 <1>  -0.1670 
 20 C        7.0300    -1.4170    -0.8290 C.ar  1 <1>   0.3050 
 21 C        7.2530     0.5080    -2.3770 C.3   1 <1>   0.1610 
 22 C        7.4300    -1.6530     0.4950 C.ar  1 <1>   0.0750 
 23 C        7.1080    -2.4550    -1.7490 C.ar  1 <1>  -0.1570 
 24 O        7.3400    -0.6260     1.3910 O.3   1 <1>  -0.3680 
 25 C        7.8940    -2.9100     0.8630 C.ar  1 <1>  -0.1570 
 26 C        7.5690    -3.7070    -1.3800 C.ar  1 <1>  -0.1500 
 27 C        8.0910    -0.6460     2.5900 C.3   1 <1>   0.0330 
 28 C        7.9620    -3.9270    -0.0720 C.ar  1 <1>  -0.1570 
 29 C        7.6510    -4.8340    -2.3940 C.3   1 <1>  -0.1030 
 30 H        0.4560     4.0850     1.7030 H     1 <1>   0.0730 
 31 H        1.3770     5.0100     0.5580 H     1 <1>   0.0730 
 32 H        2.8640    -1.2320     1.9130 H     1 <1>   0.0730 
 33 H        1.6580    -0.3900     2.8460 H     1 <1>   0.0730 
 34 H        3.3470    -0.2200     3.2670 H     1 <1>   0.0730 
 35 H        0.3450     3.8540    -1.3260 H     1 <1>   0.1430 
 36 H        4.9630    -0.8580     0.8250 H     1 <1>   0.4450 
 37 H       -1.6650     3.0370     0.8750 H     1 <1>   0.1430 
 38 H        5.1080     2.3290    -3.0470 H     1 <1>   0.0730 
 39 H        5.6000     3.5100    -1.8520 H     1 <1>   0.0730 
 40 H       -3.1570     3.4580    -1.0960 H     1 <1>   0.0730 
 41 H       -2.5400     1.8220    -1.1350 H     1 <1>   0.0730 
 42 H       -1.8500     3.0440    -2.1790 H     1 <1>   0.0730 
 43 H        7.5140     2.4860    -3.1770 H     1 <1>   0.0730 
 44 H        7.6830     2.3990    -1.4570 H     1 <1>   0.0730 
 45 H        8.2990     0.2470    -2.3520 H     1 <1>   0.0730 
 46 H        6.8410     0.1560    -3.3080 H     1 <1>   0.0730 
 47 H        6.8020    -2.2890    -2.7650 H     1 <1>   0.1430 
 48 H        8.2070    -3.1260     1.8680 H     1 <1>   0.1430 
 49 H        8.0040     0.3180     3.0590 H     1 <1>   0.0730 
 50 H        9.1230    -0.8440     2.3560 H     1 <1>   0.0730 
 51 H        7.6950    -1.4030     3.2440 H     1 <1>   0.0730 
 52 H        8.3260    -4.8980     0.2230 H     1 <1>   0.1430 
 53 H        8.6650    -4.9440    -2.7370 H     1 <1>   0.0730 
 54 H        7.0200    -4.6370    -3.2420 H     1 <1>   0.0730 
 55 H        7.3370    -5.7610    -1.9480 H     1 <1>   0.0730 
@<TRIPOS>BOND
  1   1   2  2   
  2   2   3  am  
  3   2   4  am  
  4   3   5  am  
  5   3   6  1   
  6   4   7  1   
  7   4   8  1   
  8   5   9  2   
  9   5  10  1   
 10   6  11  1   
 11   6  30  1   
 12   6  31  1   
 13   7  10  2   
 14   7  12  1   
 15   8  32  1   
 16   8  33  1   
 17   8  34  1   
 18  10  13  1   
 19  11  14  2   
 20  11  35  1   
 21  12  15  ar  
 22  12  36  1   
 23  13  15  ar  
 24  13  16  1   
 25  14  17  1   
 26  14  37  1   
 27  15  18  ar  
 28  16  19  1   
 29  16  38  1   
 30  16  39  1   
 31  17  40  1   
 32  17  41  1   
 33  17  42  1   
 34  18  20  1   
 35  18  21  1   
 36  19  21  1   
 37  19  43  1   
 38  19  44  1   
 39  20  22  ar  
 40  20  23  ar  
 41  21  45  1   
 42  21  46  1   
 43  22  24  1   
 44  22  25  ar  
 45  23  26  ar  
 46  23  47  1   
 47  24  27  1   
 48  25  28  ar  
 49  25  48  1   
 50  26  28  ar  
 51  26  29  1   
 52  27  49  1   
 53  27  50  1   
 54  27  51  1   
 55  28  52  1   
 56  29  53  1   
 57  29  54  1   
 58  29  55  1   
@<TRIPOS>SUBSTRUCTURE
  1 ****  12 GROUP 4 **** **** 0

# MOE 2024.06 (io_trps.svl 2023.06)
