@<TRIPOS>MOLECULE
2-Benzo[1,3]dioxol-5-yl-5,7-dipropyl-1,3-diaza-tricyclo[3.3.1.1*3,7*]decan-6-ol
57 61 1 0 0 
SMALL
USER_CHARGES


@<TRIPOS>ATOM
  1 O       -1.8060    -1.5820    -1.1050 O.3   1 <1>  -0.3630 
  2 C       -2.6820    -1.0390    -0.2530 C.ar  1 <1>   0.0830 
  3 C       -1.8400    -2.9920    -0.8830 C.3   1 <1>   0.4000 
  4 C       -3.2760    -2.0110     0.4920 C.ar  1 <1>   0.0830 
  5 C       -2.9970     0.2930    -0.0850 C.ar  1 <1>  -0.1500 
  6 O       -2.8060    -3.2120     0.1440 O.3   1 <1>  -0.3630 
  7 C       -4.2160    -1.7020     1.4510 C.ar  1 <1>  -0.1500 
  8 C       -3.9570     0.6480     0.8660 C.ar  1 <1>  -0.1440 
  9 C       -4.5480    -0.3660     1.6350 C.ar  1 <1>  -0.1500 
 10 C       -4.3050     2.1330     1.0640 C.3   1 <1>   0.8360 
 11 N       -5.6800     2.3260     1.5670 N.4   1 <1>  -0.9590 
 12 N       -4.2110     2.9200    -0.1720 N.3   1 <1>  -0.8100 
 13 C       -6.7020     1.8560     0.5730 C.3   1 <1>   0.3430 
 14 C       -5.9120     3.7660     1.9050 C.3   1 <1>   0.3430 
 15 C       -5.1580     2.4990    -1.2220 C.3   1 <1>   0.1100 
 16 C       -4.3500     4.3610     0.0870 C.3   1 <1>   0.1100 
 17 C       -6.6050     2.6730    -0.7250 C.3   1 <1>   0.0000 
 18 C       -5.7520     4.6470     0.6540 C.3   1 <1>   0.0000 
 19 C       -6.8110     4.1740    -0.3780 C.3   1 <1>   0.2000 
 20 C       -7.5610     2.1440    -1.8300 C.3   1 <1>  -0.1600 
 21 C       -5.9090     6.1380     1.0620 C.3   1 <1>  -0.1600 
 22 O       -8.0730     4.3650     0.1730 O.3   1 <1>  -0.6800 
 23 C       -9.0110     1.8350    -1.4100 C.3   1 <1>  -0.1600 
 24 C       -5.6820     7.1860    -0.0470 C.3   1 <1>  -0.1600 
 25 C       -9.8110     1.2960    -2.5990 C.3   1 <1>  -0.2400 
 26 C       -4.2450     7.7220    -0.0880 C.3   1 <1>  -0.2400 
 27 H       -0.8740    -3.3280    -0.5490 H     1 <1>   0.0800 
 28 H       -2.1470    -3.4930    -1.7830 H     1 <1>   0.0800 
 29 H       -2.4920     1.0250    -0.6930 H     1 <1>   0.1500 
 30 H       -4.6650    -2.4890     2.0330 H     1 <1>   0.1500 
 31 H       -5.2720    -0.1470     2.3980 H     1 <1>   0.1500 
 32 H       -3.6030     2.5380     1.7760 H     1 <1>   0.0800 
 33 H       -5.7550     1.7630     2.4140 H     1 <1>   0.4500 
 34 H       -7.6910     1.9720     0.9870 H     1 <1>   0.0800 
 35 H       -6.5480     0.8130     0.3480 H     1 <1>   0.0800 
 36 H       -5.2100     4.0840     2.6580 H     1 <1>   0.0800 
 37 H       -6.9080     3.8930     2.2970 H     1 <1>   0.0800 
 38 H       -4.9960     3.0900    -2.1100 H     1 <1>   0.0800 
 39 H       -4.9740     1.4710    -1.4880 H     1 <1>   0.0800 
 40 H       -4.2050     4.8970    -0.8360 H     1 <1>   0.0800 
 41 H       -3.5880     4.6830     0.7780 H     1 <1>   0.0800 
 42 H       -6.7480     4.7680    -1.2730 H     1 <1>   0.0800 
 43 H       -7.1510     1.2290    -2.2260 H     1 <1>   0.0800 
 44 H       -7.5750     2.8490    -2.6440 H     1 <1>   0.0800 
 45 H       -5.2510     6.3600     1.8850 H     1 <1>   0.0800 
 46 H       -6.9090     6.2800     1.4370 H     1 <1>   0.0800 
 47 H       -8.7480     4.4330    -0.5340 H     1 <1>   0.4000 
 48 H       -9.5100     2.7150    -1.0490 H     1 <1>   0.0800 
 49 H       -9.0310     1.0950    -0.6290 H     1 <1>   0.0800 
 50 H       -6.3290     8.0250     0.1510 H     1 <1>   0.0800 
 51 H       -5.9580     6.8050    -1.0140 H     1 <1>   0.0800 
 52 H       -9.8410     2.0180    -3.3970 H     1 <1>   0.0800 
 53 H      -10.8220     1.0840    -2.2980 H     1 <1>   0.0800 
 54 H       -9.3730     0.3870    -2.9730 H     1 <1>   0.0800 
 55 H       -3.9800     8.1620     0.8570 H     1 <1>   0.0800 
 56 H       -4.1680     8.4870    -0.8420 H     1 <1>   0.0800 
 57 H       -3.5310     6.9550    -0.3230 H     1 <1>   0.0800 
@<TRIPOS>BOND
  1   1   2  1   
  2   1   3  1   
  3   2   4  ar  
  4   2   5  ar  
  5   3   6  1   
  6   3  27  1   
  7   3  28  1   
  8   4   6  1   
  9   4   7  ar  
 10   5   8  ar  
 11   5  29  1   
 12   7   9  ar  
 13   7  30  1   
 14   8   9  ar  
 15   8  10  1   
 16   9  31  1   
 17  10  11  1   
 18  10  12  1   
 19  10  32  1   
 20  11  13  1   
 21  11  14  1   
 22  11  33  1   
 23  12  15  1   
 24  12  16  1   
 25  13  17  1   
 26  13  34  1   
 27  13  35  1   
 28  14  18  1   
 29  14  36  1   
 30  14  37  1   
 31  15  17  1   
 32  15  38  1   
 33  15  39  1   
 34  16  18  1   
 35  16  40  1   
 36  16  41  1   
 37  17  19  1   
 38  17  20  1   
 39  18  19  1   
 40  18  21  1   
 41  19  22  1   
 42  19  42  1   
 43  20  23  1   
 44  20  43  1   
 45  20  44  1   
 46  21  24  1   
 47  21  45  1   
 48  21  46  1   
 49  22  47  1   
 50  23  25  1   
 51  23  48  1   
 52  23  49  1   
 53  24  26  1   
 54  24  50  1   
 55  24  51  1   
 56  25  52  1   
 57  25  53  1   
 58  25  54  1   
 59  26  55  1   
 60  26  56  1   
 61  26  57  1   
@<TRIPOS>SUBSTRUCTURE
  1 ****  10 GROUP 4 **** **** 0

# MOE 2024.06 (io_trps.svl 2023.06)
