@<TRIPOS>MOLECULE
1-(Furan-2-carbonyl)-piperidine-4-carboxylic acid (5-ethoxymethyl-[1,3,4]thiadia
45 47 1 0 0 
SMALL
USER_CHARGES


@<TRIPOS>ATOM
  1 S       -0.5590     0.5150     0.3290 S.3   1 <1>  -0.0800 
  2 C       -1.9630     0.3080    -0.6650 C.2   1 <1>   0.4420 
  3 C        0.1060     1.4880    -0.9400 C.2   1 <1>   0.1980 
  4 N       -1.8560     0.9150    -1.7900 N.2   1 <1>  -0.3380 
  5 N       -2.9810    -0.4550    -0.1320 N.am  1 <1>  -0.4940 
  6 N       -0.6730     1.5870    -1.9400 N.2   1 <1>  -0.3380 
  7 C        1.4910     2.0830    -0.7530 C.3   1 <1>   0.3000 
  8 C       -4.1640    -0.8400    -0.6980 C.2   1 <1>   0.5690 
  9 O        1.5920     2.6970     0.4990 O.3   1 <1>  -0.5600 
 10 O       -4.4680    -0.5790    -1.8330 O.2   1 <1>  -0.5700 
 11 C       -5.1260    -1.6480     0.1780 C.3   1 <1>  -0.0190 
 12 C        2.8080     3.3240     0.7290 C.3   1 <1>   0.1200 
 13 C       -4.6950    -3.1240     0.2630 C.3   1 <1>  -0.1600 
 14 C       -6.5900    -1.5650    -0.3040 C.3   1 <1>  -0.1600 
 15 C        2.7560     3.9220     2.1290 C.3   1 <1>  -0.2400 
 16 C       -5.6430    -3.9370     1.1490 C.3   1 <1>   0.1400 
 17 C       -7.5350    -2.3920     0.5700 C.3   1 <1>   0.1400 
 18 N       -7.0420    -3.7940     0.6570 N.am  1 <1>  -0.6600 
 19 C       -7.7410    -4.8770     0.1460 C.2   1 <1>   0.7150 
 20 O       -7.1220    -5.8960    -0.1110 O.2   1 <1>  -0.5700 
 21 C       -9.1740    -4.8300    -0.0600 C.2   1 <1>   0.0550 
 22 O       -9.7280    -5.3350    -1.1590 O.3   1 <1>  -0.2800 
 23 C      -10.1700    -4.3270     0.7250 C.2   1 <1>  -0.1500 
 24 C      -11.0290    -5.1680    -1.0980 C.2   1 <1>  -0.0100 
 25 C      -11.3710    -4.5450     0.0490 C.2   1 <1>  -0.1500 
 26 H       -2.8160    -0.7710     0.8170 H     1 <1>   0.3700 
 27 H        1.6690     2.8200    -1.5170 H     1 <1>   0.0800 
 28 H        2.2310     1.3060    -0.8150 H     1 <1>   0.0800 
 29 H       -5.0910    -1.2280     1.1680 H     1 <1>   0.0800 
 30 H        2.9480     4.0980    -0.0070 H     1 <1>   0.0800 
 31 H        3.5980     2.5950     0.6580 H     1 <1>   0.0800 
 32 H       -3.6980    -3.2000     0.6570 H     1 <1>   0.0800 
 33 H       -4.6890    -3.5570    -0.7240 H     1 <1>   0.0800 
 34 H       -6.6590    -1.9240    -1.3180 H     1 <1>   0.0800 
 35 H       -6.9120    -0.5380    -0.3060 H     1 <1>   0.0800 
 36 H        1.9560     4.6370     2.1950 H     1 <1>   0.0800 
 37 H        3.6820     4.4210     2.3480 H     1 <1>   0.0800 
 38 H        2.6030     3.1450     2.8570 H     1 <1>   0.0800 
 39 H       -5.5940    -3.5820     2.1640 H     1 <1>   0.0800 
 40 H       -5.3390    -4.9700     1.1490 H     1 <1>   0.0800 
 41 H       -8.5200    -2.3540     0.1400 H     1 <1>   0.0800 
 42 H       -7.5830    -1.9740     1.5610 H     1 <1>   0.0800 
 43 H      -10.0730    -3.8560     1.6870 H     1 <1>   0.1500 
 44 H      -11.6390    -5.5220    -1.9120 H     1 <1>   0.1500 
 45 H      -12.3520    -4.2670     0.3950 H     1 <1>   0.1500 
@<TRIPOS>BOND
  1   1   2  1   
  2   1   3  1   
  3   2   4  2   
  4   2   5  1   
  5   3   6  2   
  6   3   7  1   
  7   4   6  1   
  8   5   8  am  
  9   5  26  1   
 10   7   9  1   
 11   7  27  1   
 12   7  28  1   
 13   8  10  2   
 14   8  11  1   
 15   9  12  1   
 16  11  13  1   
 17  11  14  1   
 18  11  29  1   
 19  12  15  1   
 20  12  30  1   
 21  12  31  1   
 22  13  16  1   
 23  13  32  1   
 24  13  33  1   
 25  14  17  1   
 26  14  34  1   
 27  14  35  1   
 28  15  36  1   
 29  15  37  1   
 30  15  38  1   
 31  16  18  1   
 32  16  39  1   
 33  16  40  1   
 34  17  18  1   
 35  17  41  1   
 36  17  42  1   
 37  18  19  am  
 38  19  20  2   
 39  19  21  1   
 40  21  22  1   
 41  21  23  2   
 42  22  24  1   
 43  23  25  1   
 44  23  43  1   
 45  24  25  2   
 46  24  44  1   
 47  25  45  1   
@<TRIPOS>SUBSTRUCTURE
  1 ****  11 GROUP 4 **** **** 0

# MOE 2024.06 (io_trps.svl 2023.06)
