@<TRIPOS>MOLECULE
N-(3-tert-Butyl-isoxazol-5-yl)-2-chloro-acetamide
27 27 1 0 0 
SMALL
USER_CHARGES


@<TRIPOS>ATOM
  1 CL      -1.5910     0.4200     0.6450 Cl    1 <1>  -0.2900 
  2 C       -1.3600    -0.4770    -0.8540 C.3   1 <1>   0.1910 
  3 C       -1.6760    -1.9520    -0.6410 C.2   1 <1>   0.5690 
  4 O       -0.7690    -2.7460    -0.6710 O.2   1 <1>  -0.5700 
  5 N       -2.9390    -2.4130    -0.4200 N.am  1 <1>  -0.4940 
  6 C       -4.1810    -1.7680    -0.4390 C.2   1 <1>   0.2040 
  7 O       -4.3380    -0.5670    -0.9360 O.3   1 <1>  -0.0190 
  8 C       -5.3870    -2.1900    -0.0200 C.2   1 <1>  -0.1500 
  9 N       -5.5800    -0.1700    -0.8700 N.2   1 <1>  -0.4100 
 10 C       -6.2430    -1.1290    -0.3170 C.2   1 <1>   0.1080 
 11 C       -7.7560    -1.0700    -0.0430 C.3   1 <1>   0.1810 
 12 C       -8.5090    -0.8720    -1.3670 C.3   1 <1>  -0.2400 
 13 C       -8.0610     0.1110     0.8900 C.3   1 <1>  -0.2400 
 14 C       -8.2690    -2.3580     0.6210 C.3   1 <1>  -0.2400 
 15 H       -0.3310    -0.3590    -1.1400 H     1 <1>   0.0800 
 16 H       -1.9920    -0.0440    -1.6050 H     1 <1>   0.0800 
 17 H       -2.9530    -3.4090    -0.2060 H     1 <1>   0.3700 
 18 H       -5.6440    -3.1240     0.4390 H     1 <1>   0.1500 
 19 H       -8.2000     0.0440    -1.8390 H     1 <1>   0.0800 
 20 H       -9.5700    -0.8280    -1.2010 H     1 <1>   0.0800 
 21 H       -8.2980    -1.6840    -2.0400 H     1 <1>   0.0800 
 22 H       -7.5300    -0.0020     1.8190 H     1 <1>   0.0800 
 23 H       -9.1130     0.1740     1.0980 H     1 <1>   0.0800 
 24 H       -7.7470     1.0350     0.4360 H     1 <1>   0.0800 
 25 H       -7.7770    -2.5190     1.5630 H     1 <1>   0.0800 
 26 H       -8.0900    -3.2070    -0.0150 H     1 <1>   0.0800 
 27 H       -9.3280    -2.2920     0.8020 H     1 <1>   0.0800 
@<TRIPOS>BOND
  1   1   2  1   
  2   2   3  1   
  3   2  15  1   
  4   2  16  1   
  5   3   4  2   
  6   3   5  am  
  7   5   6  1   
  8   5  17  1   
  9   6   7  1   
 10   6   8  2   
 11   7   9  1   
 12   8  10  1   
 13   8  18  1   
 14   9  10  2   
 15  10  11  1   
 16  11  12  1   
 17  11  13  1   
 18  11  14  1   
 19  12  19  1   
 20  12  20  1   
 21  12  21  1   
 22  13  22  1   
 23  13  23  1   
 24  13  24  1   
 25  14  25  1   
 26  14  26  1   
 27  14  27  1   
@<TRIPOS>SUBSTRUCTURE
  1 ****   6 GROUP 4 **** **** 0

# MOE 2024.06 (io_trps.svl 2023.06)
