@<TRIPOS>MOLECULE
2-Allylsulfanyl-5-(2,5-dimethoxy-phenyl)-1-methyl-5,8-dihydro-1H,6H-pyrido[2,3-d
48 50 1 0 0 
SMALL
USER_CHARGES


@<TRIPOS>ATOM
  1 S        0.3200    -0.9100    -0.0930 S.3   1 <1>  -0.3710 
  2 C        2.0990    -0.7870    -0.0470 C.2   1 <1>   0.6410 
  3 C       -0.2290     0.1130     1.3400 C.3   1 <1>   0.2080 
  4 N        2.6000    -0.0770     0.8890 N.2   1 <1>  -0.6610 
  5 N        2.8010    -1.4740    -1.0130 N.pl3 1 <1>  -0.5190 
  6 C       -1.7440     0.0560     1.3850 C.2   1 <1>  -0.2880 
  7 C        3.9560     0.0120     0.9360 C.2   1 <1>   0.7670 
  8 C        4.1740    -1.4150    -0.9660 C.2   1 <1>   0.2090 
  9 C        2.0650    -2.1920    -2.1000 C.3   1 <1>   0.1290 
 10 C       -2.4690    -0.3940     2.4150 C.2   1 <1>  -0.3000 
 11 O        4.4280     0.6070     1.8960 O.2   1 <1>  -0.5700 
 12 C        4.7660    -0.6120    -0.0420 C.2   1 <1>  -0.1240 
 13 N        4.9280    -2.2030    -1.8040 N.am  1 <1>  -0.5390 
 14 C        6.2880    -0.4250    -0.0110 C.3   1 <1>   0.2020 
 15 C        6.2790    -2.1980    -1.8640 C.2   1 <1>   0.5690 
 16 C        6.6660     1.0590     0.0180 C.ar  1 <1>  -0.1430 
 17 C        7.0330    -1.0700    -1.2000 C.3   1 <1>  -0.0990 
 18 O        6.8680    -3.0580    -2.4610 O.2   1 <1>  -0.5700 
 19 C        7.5700     1.5610     0.9490 C.ar  1 <1>   0.0830 
 20 C        6.1040     1.9360    -0.9010 C.ar  1 <1>  -0.1500 
 21 O        8.1340     0.7360     1.8600 O.3   1 <1>  -0.3630 
 22 C        7.9100     2.9060     0.9490 C.ar  1 <1>  -0.1500 
 23 C        6.4310     3.2820    -0.9030 C.ar  1 <1>   0.0830 
 24 C        7.7170     0.9240     3.1950 C.3   1 <1>   0.0400 
 25 C        7.3430     3.7690     0.0280 C.ar  1 <1>  -0.1500 
 26 O        5.8230     4.0530    -1.8420 O.3   1 <1>  -0.3620 
 27 C        6.0340     5.4460    -1.8840 C.3   1 <1>   0.0400 
 28 H        0.1270     1.1150     1.1810 H     1 <1>   0.0800 
 29 H        0.2170    -0.3030     2.2270 H     1 <1>   0.0800 
 30 H       -2.1920     0.4240     0.4780 H     1 <1>   0.1500 
 31 H        1.5850    -3.0660    -1.6950 H     1 <1>   0.0800 
 32 H        2.7210    -2.4910    -2.8970 H     1 <1>   0.0800 
 33 H        1.3180    -1.5460    -2.5270 H     1 <1>   0.0800 
 34 H       -3.5450    -0.4260     2.4230 H     1 <1>   0.1500 
 35 H       -2.0500    -0.7700     3.3330 H     1 <1>   0.1500 
 36 H        4.4880    -2.9620    -2.3210 H     1 <1>   0.3700 
 37 H        6.6260    -0.9110     0.8870 H     1 <1>   0.0800 
 38 H        7.9900    -1.4280    -0.8670 H     1 <1>   0.0800 
 39 H        7.2160    -0.3380    -1.9640 H     1 <1>   0.0800 
 40 H        5.3990     1.5880    -1.6350 H     1 <1>   0.1500 
 41 H        8.6210     3.2730     1.6660 H     1 <1>   0.1500 
 42 H        8.1480     0.1440     3.7950 H     1 <1>   0.0800 
 43 H        6.6430     0.8710     3.2360 H     1 <1>   0.0800 
 44 H        8.0560     1.8840     3.5390 H     1 <1>   0.0800 
 45 H        7.6220     4.8040     0.0520 H     1 <1>   0.1500 
 46 H        5.4350     5.8510    -2.6800 H     1 <1>   0.0800 
 47 H        7.0750     5.6360    -2.0770 H     1 <1>   0.0800 
 48 H        5.7300     5.8740    -0.9450 H     1 <1>   0.0800 
@<TRIPOS>BOND
  1   1   2  1   
  2   1   3  1   
  3   2   4  2   
  4   2   5  1   
  5   3   6  1   
  6   3  28  1   
  7   3  29  1   
  8   4   7  1   
  9   5   8  1   
 10   5   9  1   
 11   6  10  2   
 12   6  30  1   
 13   7  11  2   
 14   7  12  1   
 15   8  12  2   
 16   8  13  1   
 17   9  31  1   
 18   9  32  1   
 19   9  33  1   
 20  10  34  1   
 21  10  35  1   
 22  12  14  1   
 23  13  15  am  
 24  13  36  1   
 25  14  16  1   
 26  14  17  1   
 27  14  37  1   
 28  15  17  1   
 29  15  18  2   
 30  16  19  ar  
 31  16  20  ar  
 32  17  38  1   
 33  17  39  1   
 34  19  21  1   
 35  19  22  ar  
 36  20  23  ar  
 37  20  40  1   
 38  21  24  1   
 39  22  25  ar  
 40  22  41  1   
 41  23  25  ar  
 42  23  26  1   
 43  24  42  1   
 44  24  43  1   
 45  24  44  1   
 46  25  45  1   
 47  26  27  1   
 48  27  46  1   
 49  27  47  1   
 50  27  48  1   
@<TRIPOS>SUBSTRUCTURE
  1 ****  12 GROUP 4 **** **** 0

# MOE 2024.06 (io_trps.svl 2023.06)
