@<TRIPOS>MOLECULE
1-Methyl-3-propyl-1-(3-m-tolyl-[1,2,4]oxadiazol-5-ylmethyl)-urea
41 42 1 0 0 
SMALL
USER_CHARGES


@<TRIPOS>ATOM
  1 O        0.2420     0.5450    -1.0810 O.2   1 <1>  -0.5700 
  2 C        0.4550     1.5020    -0.3610 C.2   1 <1>   0.6900 
  3 N        1.6800     1.6770     0.2180 N.am  1 <1>  -0.6600 
  4 N       -0.5190     2.4160    -0.1370 N.am  1 <1>  -0.7300 
  5 C        2.8420     0.8460    -0.2320 C.3   1 <1>   0.3200 
  6 C        1.9380     2.5860     1.3720 C.3   1 <1>   0.0600 
  7 C       -1.8790     2.3680    -0.7090 C.3   1 <1>   0.1400 
  8 C        4.0800     1.6900    -0.5020 C.2   1 <1>   0.2980 
  9 C       -2.8790     2.8460     0.3430 C.3   1 <1>  -0.1600 
 10 O        4.0590     2.5230    -1.5090 O.3   1 <1>  -0.0190 
 11 N        5.1580     1.6750     0.1700 N.2   1 <1>  -0.5650 
 12 C       -4.3130     2.8160    -0.1970 C.3   1 <1>  -0.2400 
 13 N        5.2240     3.0890    -1.4740 N.2   1 <1>  -0.4100 
 14 C        5.8790     2.5910    -0.4850 C.2   1 <1>   0.4620 
 15 C        7.2320     2.9530    -0.0940 C.ar  1 <1>   0.0540 
 16 C        7.9490     3.9310    -0.7880 C.ar  1 <1>  -0.1500 
 17 C        7.8730     2.3430     0.9860 C.ar  1 <1>  -0.1500 
 18 C        9.2370     4.2890    -0.4290 C.ar  1 <1>  -0.1430 
 19 C        9.1600     2.6910     1.3540 C.ar  1 <1>  -0.1500 
 20 C        9.8430     3.6630     0.6470 C.ar  1 <1>  -0.1500 
 21 C        9.9900     5.3560    -1.2040 C.3   1 <1>  -0.0970 
 22 H       -0.2460     3.2880     0.3060 H     1 <1>   0.3700 
 23 H        2.6000     0.3090    -1.1320 H     1 <1>   0.0800 
 24 H        3.0680     0.1250     0.5320 H     1 <1>   0.0800 
 25 H        1.0280     2.7830     1.9110 H     1 <1>   0.0800 
 26 H        2.3510     3.5150     1.0170 H     1 <1>   0.0800 
 27 H        2.6380     2.1300     2.0510 H     1 <1>   0.0800 
 28 H       -2.1140     1.3600    -1.0090 H     1 <1>   0.0800 
 29 H       -1.9190     3.0000    -1.5800 H     1 <1>   0.0800 
 30 H       -2.6370     3.8520     0.6400 H     1 <1>   0.0800 
 31 H       -2.8160     2.2060     1.2060 H     1 <1>   0.0800 
 32 H       -4.4080     3.4600    -1.0540 H     1 <1>   0.0800 
 33 H       -4.9990     3.1520     0.5600 H     1 <1>   0.0800 
 34 H       -4.5850     1.8150    -0.4840 H     1 <1>   0.0800 
 35 H        7.4820     4.4180    -1.6260 H     1 <1>   0.1500 
 36 H        7.3570     1.5840     1.5470 H     1 <1>   0.1500 
 37 H        9.6310     2.2050     2.1900 H     1 <1>   0.1500 
 38 H       10.8440     3.9300     0.9360 H     1 <1>   0.1500 
 39 H        9.3180     5.9260    -1.8210 H     1 <1>   0.0800 
 40 H       10.7290     4.8940    -1.8330 H     1 <1>   0.0800 
 41 H       10.4810     6.0290    -0.5250 H     1 <1>   0.0800 
@<TRIPOS>BOND
  1   1   2  2   
  2   2   3  am  
  3   2   4  am  
  4   3   5  1   
  5   3   6  1   
  6   4   7  1   
  7   4  22  1   
  8   5   8  1   
  9   5  23  1   
 10   5  24  1   
 11   6  25  1   
 12   6  26  1   
 13   6  27  1   
 14   7   9  1   
 15   7  28  1   
 16   7  29  1   
 17   8  10  1   
 18   8  11  2   
 19   9  12  1   
 20   9  30  1   
 21   9  31  1   
 22  10  13  1   
 23  11  14  1   
 24  12  32  1   
 25  12  33  1   
 26  12  34  1   
 27  13  14  2   
 28  14  15  1   
 29  15  16  ar  
 30  15  17  ar  
 31  16  18  ar  
 32  16  35  1   
 33  17  19  ar  
 34  17  36  1   
 35  18  20  ar  
 36  18  21  1   
 37  19  20  ar  
 38  19  37  1   
 39  20  38  1   
 40  21  39  1   
 41  21  40  1   
 42  21  41  1   
@<TRIPOS>SUBSTRUCTURE
  1 ****   8 GROUP 4 **** **** 0

# MOE 2024.06 (io_trps.svl 2023.06)
