@<TRIPOS>MOLECULE
8-[2-(3-Hydroxy-propoxy)-phenyl]-1,3,7-trimethyl-1H,8H-imidazo[2,1-f]purine-2,4-
50 53 1 0 0 
SMALL
USER_CHARGES


@<TRIPOS>ATOM
  1 O        2.3830     2.4840    -2.7850 O.2   1 <1>  -0.5750 
  2 C        3.2770     2.3420    -1.9770 C.2   1 <1>   0.6860 
  3 N        3.8210     3.4520    -1.3370 N.am  1 <1>  -0.4260 
  4 N        3.7540     1.0680    -1.6920 N.am  1 <1>  -0.4420 
  5 C        4.8310     3.3170    -0.3920 C.2   1 <1>   0.6990 
  6 C        3.2830     4.8100    -1.6640 C.3   1 <1>   0.0520 
  7 C        4.7770     0.9440    -0.7730 C.2   1 <1>   0.4200 
  8 C        3.1840    -0.1310    -2.3770 C.3   1 <1>   0.0520 
  9 O        5.2820     4.2880     0.1920 O.2   1 <1>  -0.5750 
 10 C        5.3210     2.0040    -0.1270 C.2   1 <1>   0.2700 
 11 N        5.4080    -0.1970    -0.3750 N.pl3 1 <1>  -0.7040 
 12 N        6.3280     1.4860     0.7000 N.pl3 1 <1>  -0.6330 
 13 C        6.3410     0.1740     0.5060 C.cat 1 <1>   1.0690 
 14 C        7.3790     1.7740     1.5470 C.2   1 <1>   0.2220 
 15 N        7.3060    -0.4310     1.2110 N.pl3 1 <1>  -0.5550 
 16 C        7.9790     0.6040     1.8580 C.2   1 <1>   0.1580 
 17 C        7.6440    -1.8030     1.1220 C.ar  1 <1>   0.3050 
 18 C        9.1980     0.3680     2.7310 C.3   1 <1>  -0.1100 
 19 C        7.8710    -2.4210    -0.1150 C.ar  1 <1>   0.0750 
 20 C        7.7440    -2.5680     2.2750 C.ar  1 <1>  -0.1570 
 21 O        7.7410    -1.7220    -1.2720 O.3   1 <1>  -0.3680 
 22 C        8.1980    -3.7660    -0.1820 C.ar  1 <1>  -0.1570 
 23 C        8.0740    -3.9110     2.2070 C.ar  1 <1>  -0.1570 
 24 C        8.9310    -1.3590    -1.9460 C.3   1 <1>   0.1120 
 25 C        8.3030    -4.5080     0.9800 C.ar  1 <1>  -0.1570 
 26 C        9.4700    -0.0720    -1.3190 C.3   1 <1>  -0.1670 
 27 C       10.6980     0.4530    -2.0520 C.3   1 <1>   0.1120 
 28 O       11.0820     1.6120    -1.4070 O.3   1 <1>  -0.6840 
 29 H        3.0890     4.8860    -2.7210 H     1 <1>   0.0720 
 30 H        3.9830     5.5810    -1.3950 H     1 <1>   0.0720 
 31 H        2.3630     4.9700    -1.1300 H     1 <1>   0.0720 
 32 H        2.1690     0.0570    -2.6830 H     1 <1>   0.0720 
 33 H        3.1800    -0.9780    -1.7140 H     1 <1>   0.0720 
 34 H        3.7690    -0.3620    -3.2500 H     1 <1>   0.0720 
 35 H        5.3590    -1.1380    -0.7630 H     1 <1>   0.4450 
 36 H        7.6210     2.7820     1.8480 H     1 <1>   0.1430 
 37 H        9.6180     1.3070     3.0460 H     1 <1>   0.0720 
 38 H        8.9320    -0.1950     3.6060 H     1 <1>   0.0720 
 39 H        9.9500    -0.1720     2.1830 H     1 <1>   0.0720 
 40 H        7.5600    -2.1210     3.2350 H     1 <1>   0.1430 
 41 H        8.3670    -4.2350    -1.1360 H     1 <1>   0.1430 
 42 H        8.1520    -4.4960     3.1090 H     1 <1>   0.1430 
 43 H        8.6820    -1.1990    -2.9810 H     1 <1>   0.0720 
 44 H        9.6430    -2.1630    -1.8730 H     1 <1>   0.0720 
 45 H        8.5590    -5.5540     0.9310 H     1 <1>   0.1430 
 46 H        9.7520    -0.2680    -0.3020 H     1 <1>   0.0720 
 47 H        8.7060     0.6830    -1.3520 H     1 <1>   0.0720 
 48 H       10.4740     0.6910    -3.0780 H     1 <1>   0.0720 
 49 H       11.5130    -0.2500    -2.0050 H     1 <1>   0.0720 
 50 H       11.8860     1.9870    -1.8220 H     1 <1>   0.3940 
@<TRIPOS>BOND
  1   1   2  2   
  2   2   3  am  
  3   2   4  am  
  4   3   5  am  
  5   3   6  1   
  6   4   7  1   
  7   4   8  1   
  8   5   9  2   
  9   5  10  1   
 10   6  29  1   
 11   6  30  1   
 12   6  31  1   
 13   7  10  2   
 14   7  11  1   
 15   8  32  1   
 16   8  33  1   
 17   8  34  1   
 18  10  12  1   
 19  11  13  ar  
 20  11  35  1   
 21  12  13  ar  
 22  12  14  1   
 23  13  15  ar  
 24  14  16  2   
 25  14  36  1   
 26  15  16  1   
 27  15  17  1   
 28  16  18  1   
 29  17  19  ar  
 30  17  20  ar  
 31  18  37  1   
 32  18  38  1   
 33  18  39  1   
 34  19  21  1   
 35  19  22  ar  
 36  20  23  ar  
 37  20  40  1   
 38  21  24  1   
 39  22  25  ar  
 40  22  41  1   
 41  23  25  ar  
 42  23  42  1   
 43  24  26  1   
 44  24  43  1   
 45  24  44  1   
 46  25  45  1   
 47  26  27  1   
 48  26  46  1   
 49  26  47  1   
 50  27  28  1   
 51  27  48  1   
 52  27  49  1   
 53  28  50  1   
@<TRIPOS>SUBSTRUCTURE
  1 ****  13 GROUP 4 **** **** 0

# MOE 2024.06 (io_trps.svl 2023.06)
