@<TRIPOS>MOLECULE
3-(2,5-Dimethyl-7-oxo-4,7-dihydro-[1,2,4]triazolo[1,5-a]pyrimidin-6-yl)-propioni
29 30 1 0 0 
SMALL
USER_CHARGES


@<TRIPOS>ATOM
  1 O        0.4000    -0.3780    -1.5170 O.2   1 <1>  -0.5790 
  2 C        0.9800    -1.3880    -1.1630 C.2   1 <1>   0.9700 
  3 N        0.2540    -2.4040    -0.5520 N.pl3 1 <1>  -0.3730 
  4 C        2.3750    -1.6190    -1.4060 C.2   1 <1>  -0.1380 
  5 N       -0.9550    -2.3790     0.1090 N.2   1 <1>  -0.2730 
  6 C        0.8800    -3.5310    -0.2870 C.cat 1 <1>   1.0670 
  7 C        2.8750    -2.8820    -1.3340 C.2   1 <1>   0.1510 
  8 C        3.2730    -0.3850    -1.4400 C.3   1 <1>  -0.0370 
  9 C       -0.9780    -3.4860     0.7490 C.2   1 <1>   0.4750 
 10 N        0.1290    -4.2440     0.5150 N.pl3 1 <1>  -0.7080 
 11 N        2.0610    -3.8670    -0.8290 N.pl3 1 <1>  -0.6970 
 12 C        4.3020    -3.3340    -1.5970 C.3   1 <1>  -0.1160 
 13 C        3.4360     0.0870     0.0270 C.3   1 <1>  -0.2790 
 14 C       -2.0790    -3.9510     1.6740 C.3   1 <1>  -0.0870 
 15 C        3.4780    -1.0710     1.0160 C.2   1 <1>   0.9010 
 16 O        4.5550    -1.6130     1.2560 O.co2 1 <1>  -0.9050 
 17 O        2.4040    -1.5610     1.4000 O.co2 1 <1>  -0.9050 
 18 H        2.8480     0.3990    -2.0420 H     1 <1>   0.0650 
 19 H        4.2450    -0.6090    -1.8370 H     1 <1>   0.0650 
 20 H        0.3780    -5.1170     0.9630 H     1 <1>   0.4400 
 21 H        2.5060    -4.7290    -0.5200 H     1 <1>   0.4400 
 22 H        4.3070    -4.2670    -2.1280 H     1 <1>   0.0650 
 23 H        4.8180    -3.4630    -0.6610 H     1 <1>   0.0650 
 24 H        4.8490    -2.6240    -2.1870 H     1 <1>   0.0650 
 25 H        2.6050     0.7110     0.2980 H     1 <1>   0.0650 
 26 H        4.3340     0.6660     0.1310 H     1 <1>   0.0650 
 27 H       -2.8610    -3.2140     1.7140 H     1 <1>   0.0650 
 28 H       -1.6880    -4.0920     2.6650 H     1 <1>   0.0650 
 29 H       -2.4940    -4.8770     1.3200 H     1 <1>   0.0650 
@<TRIPOS>BOND
  1   1   2  2   
  2   2   3  1   
  3   2   4  1   
  4   3   5  1   
  5   3   6  ar  
  6   4   7  2   
  7   4   8  1   
  8   5   9  2   
  9   6  10  ar  
 10   6  11  ar  
 11   7  11  1   
 12   7  12  1   
 13   8  13  1   
 14   8  18  1   
 15   8  19  1   
 16   9  10  1   
 17   9  14  1   
 18  10  20  1   
 19  11  21  1   
 20  12  22  1   
 21  12  23  1   
 22  12  24  1   
 23  13  15  1   
 24  13  25  1   
 25  13  26  1   
 26  14  27  1   
 27  14  28  1   
 28  14  29  1   
 29  15  16  ar  
 30  15  17  ar  
@<TRIPOS>SUBSTRUCTURE
  1 ****   3 GROUP 4 **** **** 0

# MOE 2024.06 (io_trps.svl 2023.06)
