@<TRIPOS>MOLECULE
2-Ethylsulfanyl-5-(2-fluoro-phenyl)-1-methyl-5,8-dihydro-1H,6H-pyrido[2,3-d]pyri
39 41 1 0 0 
SMALL
USER_CHARGES


@<TRIPOS>ATOM
  1 S        0.2070     0.2550    -0.2460 S.3   1 <1>  -0.3710 
  2 C        1.6830     1.2070     0.0950 C.2   1 <1>   0.6410 
  3 C       -1.2110     1.4120     0.0210 C.3   1 <1>   0.0700 
  4 N        1.5210     2.4090     0.4980 N.2   1 <1>  -0.6610 
  5 N        2.8900     0.5680    -0.0850 N.pl3 1 <1>  -0.5190 
  6 C       -1.4060     2.2310    -1.2540 C.3   1 <1>  -0.2400 
  7 C        2.6440     3.1260     0.7680 C.2   1 <1>   0.7670 
  8 C        4.0360     1.2690     0.2130 C.2   1 <1>   0.2090 
  9 C        2.9250    -0.8080    -0.6740 C.3   1 <1>   0.1290 
 10 O        2.4780     4.2420     1.2430 O.2   1 <1>  -0.5700 
 11 C        3.9330     2.5770     0.5710 C.2   1 <1>  -0.1240 
 12 N        5.2550     0.6310     0.2060 N.am  1 <1>  -0.5390 
 13 C        5.1880     3.4250     0.8220 C.3   1 <1>   0.2020 
 14 C        6.4450     1.2410     0.4100 C.2   1 <1>   0.5690 
 15 C        5.1220     4.8110     0.1710 C.ar  1 <1>  -0.1440 
 16 C        6.4980     2.7490     0.3640 C.3   1 <1>  -0.0990 
 17 O        7.4440     0.6000     0.5990 O.2   1 <1>  -0.5700 
 18 C        4.8300     4.9910    -1.1770 C.ar  1 <1>   0.1900 
 19 C        5.3600     5.9490     0.9300 C.ar  1 <1>  -0.1500 
 20 F        4.6050     3.9510    -1.9370 F     1 <1>  -0.1900 
 21 C        4.7720     6.2380    -1.7690 C.ar  1 <1>  -0.1500 
 22 C        5.3080     7.2090     0.3530 C.ar  1 <1>  -0.1500 
 23 C        5.0150     7.3570    -0.9940 C.ar  1 <1>  -0.1500 
 24 H       -0.9860     2.0320     0.8710 H     1 <1>   0.0800 
 25 H       -2.0750     0.8070     0.2310 H     1 <1>   0.0800 
 26 H       -0.5270     2.8170    -1.4570 H     1 <1>   0.0800 
 27 H       -2.2400     2.8990    -1.1340 H     1 <1>   0.0800 
 28 H       -1.5990     1.5820    -2.0890 H     1 <1>   0.0800 
 29 H        2.5620    -1.5190     0.0490 H     1 <1>   0.0800 
 30 H        3.9170    -1.0880    -0.9750 H     1 <1>   0.0800 
 31 H        2.3020    -0.8470    -1.5500 H     1 <1>   0.0800 
 32 H        5.2990    -0.3850     0.1830 H     1 <1>   0.3700 
 33 H        5.2480     3.5520     1.8890 H     1 <1>   0.0800 
 34 H        7.3150     3.0970     0.9690 H     1 <1>   0.0800 
 35 H        6.7160     3.0130    -0.6540 H     1 <1>   0.0800 
 36 H        5.5820     5.8680     1.9800 H     1 <1>   0.1500 
 37 H        4.5400     6.3270    -2.8150 H     1 <1>   0.1500 
 38 H        5.4920     8.0810     0.9570 H     1 <1>   0.1500 
 39 H        4.9740     8.3390    -1.4330 H     1 <1>   0.1500 
@<TRIPOS>BOND
  1   1   2  1   
  2   1   3  1   
  3   2   4  2   
  4   2   5  1   
  5   3   6  1   
  6   3  24  1   
  7   3  25  1   
  8   4   7  1   
  9   5   8  1   
 10   5   9  1   
 11   6  26  1   
 12   6  27  1   
 13   6  28  1   
 14   7  10  2   
 15   7  11  1   
 16   8  11  2   
 17   8  12  1   
 18   9  29  1   
 19   9  30  1   
 20   9  31  1   
 21  11  13  1   
 22  12  14  am  
 23  12  32  1   
 24  13  15  1   
 25  13  16  1   
 26  13  33  1   
 27  14  16  1   
 28  14  17  2   
 29  15  18  ar  
 30  15  19  ar  
 31  16  34  1   
 32  16  35  1   
 33  18  20  1   
 34  18  21  ar  
 35  19  22  ar  
 36  19  36  1   
 37  21  23  ar  
 38  21  37  1   
 39  22  23  ar  
 40  22  38  1   
 41  23  39  1   
@<TRIPOS>SUBSTRUCTURE
  1 ****  11 GROUP 4 **** **** 0

# MOE 2024.06 (io_trps.svl 2023.06)
