@<TRIPOS>MOLECULE
6-Methyl-10-oxo-2-[(Z)-propylimino]-1,10-dihydro-2H-1,9,10a-triaza-anthracene-3-
44 46 1 0 0 
SMALL
USER_CHARGES


@<TRIPOS>ATOM
  1 O       -0.0750    -0.2980    -0.2080 O.2   1 <1>  -0.5700 
  2 C        0.0380    -1.5020    -0.2080 C.2   1 <1>   0.8650 
  3 N       -1.1260    -2.2880    -0.1240 N.pl3 1 <1>  -0.5760 
  4 C        1.3280    -2.1100    -0.2850 C.ar  1 <1>   0.0860 
  5 C       -1.0270    -3.6390    -0.0960 C.cat 1 <1>   0.7390 
  6 C       -2.3740    -1.7070    -0.0670 C.2   1 <1>   0.1910 
  7 C        1.3550    -3.4970    -0.2490 C.ar  1 <1>   0.6590 
  8 C        2.5420    -1.4450    -0.3890 C.ar  1 <1>  -0.1500 
  9 N        0.1930    -4.1920    -0.1530 N.pl3 1 <1>  -0.6530 
 10 C       -2.1820    -4.4260    -0.0080 C.2   1 <1>  -0.1800 
 11 C       -3.5160    -2.4570     0.0180 C.2   1 <1>  -0.1380 
 12 N        2.4310    -4.2410    -0.3020 N.ar  1 <1>  -0.6200 
 13 C        3.7110    -2.1870    -0.4500 C.ar  1 <1>   0.0860 
 14 C       -3.4230    -3.8520     0.0490 C.2   1 <1>  -0.1500 
 15 C       -4.8950    -1.8170     0.0810 C.3   1 <1>  -0.1020 
 16 C        3.5890    -3.5980    -0.4060 C.ar  1 <1>   0.4100 
 17 C        4.9970    -1.5370    -0.5570 C.2   1 <1>   0.5440 
 18 N        4.6960    -4.3900    -0.4690 N.pl3 1 <1>  -0.8690 
 19 O        5.8720    -1.9920    -1.2690 O.2   1 <1>  -0.5700 
 20 N        5.2530    -0.3810     0.1340 N.am  1 <1>  -0.7300 
 21 C        4.7780    -5.8670    -0.4340 C.3   1 <1>   0.2090 
 22 C        6.5220     0.3920     0.0670 C.3   1 <1>   0.0600 
 23 C        6.0440    -6.2660     0.3210 C.3   1 <1>  -0.1600 
 24 C        6.1910    -7.7890     0.4060 C.3   1 <1>  -0.2400 
 25 H       -2.4420    -0.6270    -0.0920 H     1 <1>   0.1500 
 26 H        2.5730    -0.3670    -0.4330 H     1 <1>   0.1500 
 27 H        0.3200    -5.2050    -0.1370 H     1 <1>   0.4500 
 28 H       -2.0850    -5.4970     0.0140 H     1 <1>   0.1500 
 29 H       -4.3190    -4.4500     0.1160 H     1 <1>   0.1500 
 30 H       -5.4930    -2.1440    -0.7510 H     1 <1>   0.0800 
 31 H       -4.8290    -0.7430     0.0490 H     1 <1>   0.0800 
 32 H       -5.3920    -2.0990     0.9930 H     1 <1>   0.0800 
 33 H        5.5730    -3.9230    -0.7630 H     1 <1>   0.4000 
 34 H        4.5910    -0.0520     0.8390 H     1 <1>   0.3700 
 35 H        4.8130    -6.2450    -1.4420 H     1 <1>   0.0800 
 36 H        3.9150    -6.2790     0.0600 H     1 <1>   0.0800 
 37 H        7.1500     0.0260    -0.7290 H     1 <1>   0.0800 
 38 H        7.0550     0.3000     0.9970 H     1 <1>   0.0800 
 39 H        6.3080     1.4310    -0.1170 H     1 <1>   0.0800 
 40 H        6.0040    -5.8590     1.3170 H     1 <1>   0.0800 
 41 H        6.9030    -5.8570    -0.1820 H     1 <1>   0.0800 
 42 H        5.3520    -8.2230     0.9220 H     1 <1>   0.0800 
 43 H        7.0880    -8.0410     0.9450 H     1 <1>   0.0800 
 44 H        6.2550    -8.2190    -0.5780 H     1 <1>   0.0800 
@<TRIPOS>BOND
  1   1   2  2   
  2   2   3  1   
  3   2   4  1   
  4   3   5  ar  
  5   3   6  1   
  6   4   7  ar  
  7   4   8  ar  
  8   5   9  ar  
  9   5  10  1   
 10   6  11  2   
 11   6  25  1   
 12   7   9  1   
 13   7  12  ar  
 14   8  13  ar  
 15   8  26  1   
 16   9  27  1   
 17  10  14  2   
 18  10  28  1   
 19  11  14  1   
 20  11  15  1   
 21  12  16  ar  
 22  13  16  ar  
 23  13  17  1   
 24  14  29  1   
 25  15  30  1   
 26  15  31  1   
 27  15  32  1   
 28  16  18  1   
 29  17  19  2   
 30  17  20  am  
 31  18  21  1   
 32  18  33  1   
 33  20  22  1   
 34  20  34  1   
 35  21  23  1   
 36  21  35  1   
 37  21  36  1   
 38  22  37  1   
 39  22  38  1   
 40  22  39  1   
 41  23  24  1   
 42  23  40  1   
 43  23  41  1   
 44  24  42  1   
 45  24  43  1   
 46  24  44  1   
@<TRIPOS>SUBSTRUCTURE
  1 ****   7 GROUP 4 **** **** 0

# MOE 2024.06 (io_trps.svl 2023.06)
