@<TRIPOS>MOLECULE
6-Benzyl-5-methyl-7-pyrrolidin-1-yl-[1,2,4]triazolo[1,5-a]pyrimidine
42 45 1 0 0 
SMALL
USER_CHARGES


@<TRIPOS>ATOM
  1 N        0.0240     0.3140    -1.2050 N.2   1 <1>  -0.6120 
  2 C        1.1560     0.9740    -1.2380 C.2   1 <1>   0.3750 
  3 C       -1.0060     1.0100    -0.7620 C.cat 1 <1>   0.9620 
  4 C        1.2920     2.3130    -0.8450 C.2   1 <1>  -0.1240 
  5 C        2.3370     0.1600    -1.7420 C.3   1 <1>  -0.1790 
  6 N       -2.2310     0.5490    -0.6100 N.pl3 1 <1>  -0.7000 
  7 N       -1.0020     2.2890    -0.3770 N.pl3 1 <1>  -0.3220 
  8 C        0.1680     2.9940    -0.4130 C.2   1 <1>   0.4790 
  9 C        2.6540     3.0170    -0.8850 C.3   1 <1>   0.1220 
 10 C       -2.9640     1.5800    -0.1140 C.2   1 <1>   0.5030 
 11 N       -2.2650     2.6430     0.0430 N.2   1 <1>  -0.2600 
 12 N        0.1650     4.3010    -0.0190 N.pl3 1 <1>  -0.8380 
 13 C        3.6360     2.3900     0.0960 C.ar  1 <1>  -0.1430 
 14 C       -0.6830     5.3360    -0.6650 C.3   1 <1>   0.2090 
 15 C        0.4590     4.6840     1.3860 C.3   1 <1>   0.2090 
 16 C        4.9240     2.0770    -0.3150 C.ar  1 <1>  -0.1500 
 17 C        3.2600     2.1210     1.4060 C.ar  1 <1>  -0.1500 
 18 C       -1.2450     6.1480     0.4910 C.3   1 <1>  -0.1600 
 19 C       -0.1710     6.0600     1.5690 C.3   1 <1>  -0.1600 
 20 C        5.8180     1.4940     0.5660 C.ar  1 <1>  -0.1500 
 21 C        4.1550     1.5380     2.2860 C.ar  1 <1>  -0.1500 
 22 C        5.4340     1.2230     1.8660 C.ar  1 <1>  -0.1500 
 23 H        2.9260     0.7210    -2.4430 H     1 <1>   0.0800 
 24 H        2.0000    -0.7320    -2.2390 H     1 <1>   0.0800 
 25 H        2.9580    -0.1340    -0.9150 H     1 <1>   0.0800 
 26 H       -2.4990    -0.4070    -0.8300 H     1 <1>   0.4500 
 27 H        2.5740     4.0630    -0.6490 H     1 <1>   0.0800 
 28 H        3.0480     2.9690    -1.8840 H     1 <1>   0.0800 
 29 H       -4.0150     1.4940     0.1180 H     1 <1>   0.1500 
 30 H       -1.4650     4.9030    -1.2650 H     1 <1>   0.0800 
 31 H       -0.0620     5.9600    -1.2860 H     1 <1>   0.0800 
 32 H        1.5210     4.7210     1.5630 H     1 <1>   0.0800 
 33 H        0.0030     3.9750     2.0560 H     1 <1>   0.0800 
 34 H        5.2450     2.2830    -1.3210 H     1 <1>   0.1500 
 35 H        2.2730     2.3600     1.7550 H     1 <1>   0.1500 
 36 H       -2.1520     5.6840     0.8370 H     1 <1>   0.0800 
 37 H       -1.4570     7.1620     0.2030 H     1 <1>   0.0800 
 38 H        0.5800     6.8130     1.3980 H     1 <1>   0.0800 
 39 H       -0.5710     6.1880     2.5590 H     1 <1>   0.0800 
 40 H        6.8150     1.2520     0.2400 H     1 <1>   0.1500 
 41 H        3.8590     1.3300     3.3000 H     1 <1>   0.1500 
 42 H        6.1300     0.7690     2.5500 H     1 <1>   0.1500 
@<TRIPOS>BOND
  1   1   2  2   
  2   1   3  1   
  3   2   4  1   
  4   2   5  1   
  5   3   6  ar  
  6   3   7  ar  
  7   4   8  2   
  8   4   9  1   
  9   5  23  1   
 10   5  24  1   
 11   5  25  1   
 12   6  10  1   
 13   6  26  1   
 14   7   8  1   
 15   7  11  1   
 16   8  12  1   
 17   9  13  1   
 18   9  27  1   
 19   9  28  1   
 20  10  11  2   
 21  10  29  1   
 22  12  14  1   
 23  12  15  1   
 24  13  16  ar  
 25  13  17  ar  
 26  14  18  1   
 27  14  30  1   
 28  14  31  1   
 29  15  19  1   
 30  15  32  1   
 31  15  33  1   
 32  16  20  ar  
 33  16  34  1   
 34  17  21  ar  
 35  17  35  1   
 36  18  19  1   
 37  18  36  1   
 38  18  37  1   
 39  19  38  1   
 40  19  39  1   
 41  20  22  ar  
 42  20  40  1   
 43  21  22  ar  
 44  21  41  1   
 45  22  42  1   
@<TRIPOS>SUBSTRUCTURE
  1 ****   4 GROUP 4 **** **** 0

# MOE 2024.06 (io_trps.svl 2023.06)
