@<TRIPOS>MOLECULE
N-(3,5-Dichloro-phenyl)-2-pyrrolidin-1-yl-acetamide
32 33 1 0 0 
SMALL
USER_CHARGES


@<TRIPOS>ATOM
  1 CL      -0.4290    -0.0230    -0.7820 Cl    1 <1>  -0.1770 
  2 C       -0.1230    -1.6850    -0.3520 C.ar  1 <1>   0.1770 
  3 C       -1.1920    -2.5370    -0.1570 C.ar  1 <1>  -0.1500 
  4 C        1.1830    -2.1180    -0.2120 C.ar  1 <1>  -0.1500 
  5 C       -0.9200    -3.8450     0.1870 C.ar  1 <1>   0.1770 
  6 C        1.4530    -3.4410     0.1310 C.ar  1 <1>   0.1170 
  7 CL      -2.2430    -4.9510     0.4460 Cl    1 <1>  -0.1770 
  8 C        0.3770    -4.3010     0.3330 C.ar  1 <1>  -0.1500 
  9 N        2.7560    -3.9400     0.3000 N.am  1 <1>  -0.5470 
 10 C        3.9340    -3.5110    -0.2630 C.2   1 <1>   0.5690 
 11 O        3.9950    -2.6000    -1.0540 O.2   1 <1>  -0.5700 
 12 C        5.2610    -4.2040     0.1050 C.3   1 <1>   0.4040 
 13 N        6.4860    -3.3960    -0.2640 N.4   1 <1>  -0.9590 
 14 C        7.7750    -4.1210    -0.2050 C.3   1 <1>   0.3430 
 15 C        6.6510    -2.1600     0.5390 C.3   1 <1>   0.3430 
 16 C        8.8240    -3.0170    -0.1670 C.3   1 <1>  -0.1600 
 17 C        8.0960    -1.7500     0.2950 C.3   1 <1>  -0.1600 
 18 H       -2.2030    -2.1910    -0.2690 H     1 <1>   0.1500 
 19 H        1.9740    -1.4100    -0.3710 H     1 <1>   0.1500 
 20 H        0.5350    -5.3300     0.6000 H     1 <1>   0.1500 
 21 H        2.7920    -4.7790     0.8810 H     1 <1>   0.3700 
 22 H        5.2910    -5.1450    -0.4180 H     1 <1>   0.0800 
 23 H        5.2680    -4.4070     1.1610 H     1 <1>   0.0800 
 24 H        6.3320    -3.0670    -1.2330 H     1 <1>   0.4500 
 25 H        7.9100    -4.7700    -1.0560 H     1 <1>   0.0800 
 26 H        7.8310    -4.7000     0.7040 H     1 <1>   0.0800 
 27 H        6.5090    -2.3760     1.5860 H     1 <1>   0.0800 
 28 H        5.9590    -1.3900     0.2310 H     1 <1>   0.0800 
 29 H        9.2380    -2.8740    -1.1500 H     1 <1>   0.0800 
 30 H        9.6240    -3.2840     0.5020 H     1 <1>   0.0800 
 31 H        8.5290    -1.3430     1.1930 H     1 <1>   0.0800 
 32 H        8.1330    -0.9960    -0.4720 H     1 <1>   0.0800 
@<TRIPOS>BOND
  1   1   2  1   
  2   2   3  ar  
  3   2   4  ar  
  4   3   5  ar  
  5   3  18  1   
  6   4   6  ar  
  7   4  19  1   
  8   5   7  1   
  9   5   8  ar  
 10   6   8  ar  
 11   6   9  1   
 12   8  20  1   
 13   9  10  am  
 14   9  21  1   
 15  10  11  2   
 16  10  12  1   
 17  12  13  1   
 18  12  22  1   
 19  12  23  1   
 20  13  14  1   
 21  13  15  1   
 22  13  24  1   
 23  14  16  1   
 24  14  25  1   
 25  14  26  1   
 26  15  17  1   
 27  15  27  1   
 28  15  28  1   
 29  16  17  1   
 30  16  29  1   
 31  16  30  1   
 32  17  31  1   
 33  17  32  1   
@<TRIPOS>SUBSTRUCTURE
  1 ****   9 GROUP 4 **** **** 0

# MOE 2024.06 (io_trps.svl 2023.06)
