@<TRIPOS>MOLECULE
2-Cyclohexyl-N-isopropyl-N-(3-p-tolyl-[1,2,4]oxadiazol-5-ylmethyl)-acetamide
55 57 1 0 0 
SMALL
USER_CHARGES


@<TRIPOS>ATOM
  1 O        0.2770     0.4450     2.4320 O.2   1 <1>  -0.5700 
  2 C        0.3950     1.6010     2.1000 C.2   1 <1>   0.5690 
  3 N        1.5770     2.2740     2.2970 N.am  1 <1>  -0.6600 
  4 C       -0.8270     2.2500     1.4540 C.3   1 <1>  -0.0990 
  5 C        1.6990     3.7650     2.2520 C.3   1 <1>   0.2200 
  6 C        2.8160     1.4590     2.5800 C.3   1 <1>   0.3200 
  7 C       -1.3310     1.4780     0.2180 C.3   1 <1>  -0.0800 
  8 C        2.1450     4.2300     0.8660 C.3   1 <1>  -0.2400 
  9 C        2.6330     4.3080     3.3360 C.3   1 <1>  -0.2400 
 10 C        3.8030     1.4740     1.4220 C.2   1 <1>   0.2980 
 11 C       -0.2640     1.4270    -0.8940 C.3   1 <1>  -0.1600 
 12 C       -2.6290     2.1110    -0.3150 C.3   1 <1>  -0.1600 
 13 O        3.4100     1.0160     0.2630 O.3   1 <1>  -0.0190 
 14 N        4.9990     1.9010     1.4630 N.2   1 <1>  -0.5650 
 15 C       -0.7810     0.6880    -2.1350 C.3   1 <1>  -0.1600 
 16 C       -3.1460     1.3720    -1.5570 C.3   1 <1>  -0.1600 
 17 N        4.4430     1.1700    -0.5040 N.2   1 <1>  -0.4100 
 18 C        5.3850     1.6920     0.2000 C.2   1 <1>   0.4620 
 19 C       -2.0780     1.3190    -2.6560 C.3   1 <1>  -0.1600 
 20 C        6.7150     2.0310    -0.2820 C.ar  1 <1>   0.0540 
 21 C        7.0860     1.8000    -1.6070 C.ar  1 <1>  -0.1500 
 22 C        7.6760     2.6020     0.5540 C.ar  1 <1>  -0.1500 
 23 C        8.3480     2.1200    -2.0740 C.ar  1 <1>  -0.1500 
 24 C        8.9390     2.9250     0.0920 C.ar  1 <1>  -0.1500 
 25 C        9.2850     2.6850    -1.2260 C.ar  1 <1>  -0.1440 
 26 C       10.6700     3.0390    -1.7360 C.3   1 <1>  -0.0970 
 27 H       -0.6330     3.2590     1.1570 H     1 <1>   0.0800 
 28 H       -1.6050     2.2710     2.1950 H     1 <1>   0.0800 
 29 H        0.7310     4.1890     2.4550 H     1 <1>   0.0800 
 30 H        2.5640     0.4320     2.7690 H     1 <1>   0.0800 
 31 H        3.3010     1.8190     3.4670 H     1 <1>   0.0800 
 32 H       -1.5520     0.4670     0.5180 H     1 <1>   0.0800 
 33 H        3.1700     3.9740     0.6780 H     1 <1>   0.0800 
 34 H        2.0560     5.2990     0.7980 H     1 <1>   0.0800 
 35 H        1.5290     3.7920     0.1020 H     1 <1>   0.0800 
 36 H        3.6570     4.0470     3.1380 H     1 <1>   0.0800 
 37 H        2.3400     3.9370     4.3010 H     1 <1>   0.0800 
 38 H        2.5690     5.3810     3.3580 H     1 <1>   0.0800 
 39 H        0.6180     0.9250    -0.5360 H     1 <1>   0.0800 
 40 H        0.0150     2.4270    -1.1750 H     1 <1>   0.0800 
 41 H       -2.4510     3.1420    -0.5700 H     1 <1>   0.0800 
 42 H       -3.3850     2.0840     0.4500 H     1 <1>   0.0800 
 43 H       -0.9620    -0.3430    -1.8830 H     1 <1>   0.0800 
 44 H       -0.0310     0.7120    -2.9060 H     1 <1>   0.0800 
 45 H       -4.0250     1.8670    -1.9320 H     1 <1>   0.0800 
 46 H       -3.4240     0.3680    -1.2820 H     1 <1>   0.0800 
 47 H       -2.4470     0.7470    -3.4900 H     1 <1>   0.0800 
 48 H       -1.8740     2.3170    -3.0040 H     1 <1>   0.0800 
 49 H        6.3750     1.3610    -2.2850 H     1 <1>   0.1500 
 50 H        7.4320     2.7980     1.5830 H     1 <1>   0.1500 
 51 H        8.5980     1.9290    -3.1030 H     1 <1>   0.1500 
 52 H        9.6530     3.3660     0.7660 H     1 <1>   0.1500 
 53 H       10.6740     4.0490    -2.1050 H     1 <1>   0.0800 
 54 H       10.9590     2.3770    -2.5310 H     1 <1>   0.0800 
 55 H       11.3940     2.9550    -0.9450 H     1 <1>   0.0800 
@<TRIPOS>BOND
  1   1   2  2   
  2   2   3  am  
  3   2   4  1   
  4   3   5  1   
  5   3   6  1   
  6   4   7  1   
  7   4  27  1   
  8   4  28  1   
  9   5   8  1   
 10   5   9  1   
 11   5  29  1   
 12   6  10  1   
 13   6  30  1   
 14   6  31  1   
 15   7  11  1   
 16   7  12  1   
 17   7  32  1   
 18   8  33  1   
 19   8  34  1   
 20   8  35  1   
 21   9  36  1   
 22   9  37  1   
 23   9  38  1   
 24  10  13  1   
 25  10  14  2   
 26  11  15  1   
 27  11  39  1   
 28  11  40  1   
 29  12  16  1   
 30  12  41  1   
 31  12  42  1   
 32  13  17  1   
 33  14  18  1   
 34  15  19  1   
 35  15  43  1   
 36  15  44  1   
 37  16  19  1   
 38  16  45  1   
 39  16  46  1   
 40  17  18  2   
 41  18  20  1   
 42  19  47  1   
 43  19  48  1   
 44  20  21  ar  
 45  20  22  ar  
 46  21  23  ar  
 47  21  49  1   
 48  22  24  ar  
 49  22  50  1   
 50  23  25  ar  
 51  23  51  1   
 52  24  25  ar  
 53  24  52  1   
 54  25  26  1   
 55  26  53  1   
 56  26  54  1   
 57  26  55  1   
@<TRIPOS>SUBSTRUCTURE
  1 ****  13 GROUP 4 **** **** 0

# MOE 2024.06 (io_trps.svl 2023.06)
