@<TRIPOS>MOLECULE
2-[3-(2-Methoxy-ethyl)-2,5-dioxo-1-m-tolyl-imidazolidin-4-yl]-N-(4-methoxy-pheny
55 57 1 0 0 
SMALL
USER_CHARGES


@<TRIPOS>ATOM
  1 O       -0.4780     0.3560     1.0520 O.2   1 <1>  -0.5700 
  2 C       -1.6460     0.6440     0.8950 C.2   1 <1>   0.6900 
  3 N       -2.6680    -0.2660     0.7210 N.am  1 <1>  -0.2370 
  4 N       -2.0950     1.9310     0.8860 N.am  1 <1>  -0.6600 
  5 C       -2.5250    -1.6670     0.6110 C.ar  1 <1>   0.1170 
  6 C       -3.8450     0.4320     0.6370 C.2   1 <1>   0.5690 
  7 C       -3.5700     1.9280     0.7870 C.3   1 <1>   0.2810 
  8 C       -1.3520     3.0960     1.4430 C.3   1 <1>   0.1400 
  9 C       -1.5270    -2.2240    -0.1830 C.ar  1 <1>  -0.1500 
 10 C       -3.3850    -2.5250     1.2890 C.ar  1 <1>  -0.1500 
 11 O       -4.9470    -0.0240     0.4320 O.2   1 <1>  -0.5700 
 12 C       -4.0330     2.7450    -0.4240 C.3   1 <1>  -0.0990 
 13 C       -0.2270     3.5170     0.4990 C.3   1 <1>   0.1200 
 14 C       -1.3860    -3.5970    -0.3020 C.ar  1 <1>  -0.1440 
 15 C       -3.2540    -3.8960     1.1750 C.ar  1 <1>  -0.1500 
 16 C       -5.4820     3.1430    -0.2660 C.2   1 <1>   0.5690 
 17 O        0.2990     4.7200     0.9620 O.3   1 <1>  -0.5600 
 18 C       -2.2560    -4.4310     0.3790 C.ar  1 <1>  -0.1500 
 19 C       -0.2890    -4.1860    -1.1700 C.3   1 <1>  -0.0970 
 20 O       -5.7130     4.2940     0.0040 O.2   1 <1>  -0.5700 
 21 N       -6.4450     2.1850    -0.4030 N.am  1 <1>  -0.5470 
 22 C        1.3830     5.1800     0.2220 C.3   1 <1>   0.0400 
 23 C       -7.8430     2.2700    -0.3200 C.ar  1 <1>   0.1170 
 24 C       -8.5490     3.4460    -0.5480 C.ar  1 <1>  -0.1500 
 25 C       -8.5550     1.1180    -0.0090 C.ar  1 <1>  -0.1500 
 26 C       -9.9290     3.4680    -0.4600 C.ar  1 <1>  -0.1500 
 27 C       -9.9360     1.1340     0.0800 C.ar  1 <1>  -0.1500 
 28 C      -10.6330     2.3170    -0.1460 C.ar  1 <1>   0.0820 
 29 O      -11.9860     2.4250    -0.0790 O.3   1 <1>  -0.3620 
 30 C      -12.7880     1.3120     0.2490 C.3   1 <1>   0.0400 
 31 H       -3.9980     2.3010     1.7020 H     1 <1>   0.0800 
 32 H       -0.9300     2.8270     2.3960 H     1 <1>   0.0800 
 33 H       -2.0270     3.9230     1.5810 H     1 <1>   0.0800 
 34 H       -0.8500    -1.5760    -0.7100 H     1 <1>   0.1500 
 35 H       -4.1660    -2.1210     1.9090 H     1 <1>   0.1500 
 36 H       -3.9070     2.1890    -1.3340 H     1 <1>   0.0800 
 37 H       -3.4520     3.6470    -0.4950 H     1 <1>   0.0800 
 38 H       -0.6070     3.6730    -0.4950 H     1 <1>   0.0800 
 39 H        0.5520     2.7740     0.4930 H     1 <1>   0.0800 
 40 H       -3.9260    -4.5500     1.7030 H     1 <1>   0.1500 
 41 H       -2.1590    -5.5000     0.2940 H     1 <1>   0.1500 
 42 H        0.5120    -3.4800    -1.3010 H     1 <1>   0.0800 
 43 H       -0.6860    -4.4440    -2.1350 H     1 <1>   0.0800 
 44 H        0.1130    -5.0720    -0.7110 H     1 <1>   0.0800 
 45 H       -6.0980     1.2180    -0.4300 H     1 <1>   0.3700 
 46 H        1.7140     6.1080     0.6540 H     1 <1>   0.0800 
 47 H        1.0750     5.3450    -0.7970 H     1 <1>   0.0800 
 48 H        2.1780     4.4560     0.2660 H     1 <1>   0.0800 
 49 H       -8.0250     4.3500    -0.7970 H     1 <1>   0.1500 
 50 H       -8.0240     0.1990     0.1690 H     1 <1>   0.1500 
 51 H      -10.4690     4.3810    -0.6340 H     1 <1>   0.1500 
 52 H      -10.4470     0.2230     0.3250 H     1 <1>   0.1500 
 53 H      -13.8150     1.6300     0.2480 H     1 <1>   0.0800 
 54 H      -12.5150     0.9620     1.2290 H     1 <1>   0.0800 
 55 H      -12.6410     0.5460    -0.4910 H     1 <1>   0.0800 
@<TRIPOS>BOND
  1   1   2  2   
  2   2   3  am  
  3   2   4  am  
  4   3   5  1   
  5   3   6  am  
  6   4   7  1   
  7   4   8  1   
  8   5   9  ar  
  9   5  10  ar  
 10   6   7  1   
 11   6  11  2   
 12   7  12  1   
 13   7  31  1   
 14   8  13  1   
 15   8  32  1   
 16   8  33  1   
 17   9  14  ar  
 18   9  34  1   
 19  10  15  ar  
 20  10  35  1   
 21  12  16  1   
 22  12  36  1   
 23  12  37  1   
 24  13  17  1   
 25  13  38  1   
 26  13  39  1   
 27  14  18  ar  
 28  14  19  1   
 29  15  18  ar  
 30  15  40  1   
 31  16  20  2   
 32  16  21  am  
 33  17  22  1   
 34  18  41  1   
 35  19  42  1   
 36  19  43  1   
 37  19  44  1   
 38  21  23  1   
 39  21  45  1   
 40  22  46  1   
 41  22  47  1   
 42  22  48  1   
 43  23  24  ar  
 44  23  25  ar  
 45  24  26  ar  
 46  24  49  1   
 47  25  27  ar  
 48  25  50  1   
 49  26  28  ar  
 50  26  51  1   
 51  27  28  ar  
 52  27  52  1   
 53  28  29  1   
 54  29  30  1   
 55  30  53  1   
 56  30  54  1   
 57  30  55  1   
@<TRIPOS>SUBSTRUCTURE
  1 ****   6 GROUP 4 **** **** 0

# MOE 2024.06 (io_trps.svl 2023.06)
