@<TRIPOS>MOLECULE
7-(2-Hydroxy-propyl)-1,3-dimethyl-8-morpholin-4-yl-3,7-dihydro-purine-2,6-dione
45 47 1 0 0 
SMALL
USER_CHARGES


@<TRIPOS>ATOM
  1 O        1.2370     0.6760     1.4360 O.2   1 <1>  -0.5750 
  2 C        2.2110     1.2170     0.9530 C.2   1 <1>   0.6860 
  3 N        2.1250     2.5250     0.4910 N.am  1 <1>  -0.4260 
  4 N        3.4080     0.5240     0.8550 N.am  1 <1>  -0.4420 
  5 C        3.2020     3.1380    -0.1360 C.2   1 <1>   0.6990 
  6 C        0.8280     3.2590     0.6300 C.3   1 <1>   0.0510 
  7 C        4.4730     1.1570     0.2440 C.2   1 <1>   0.4200 
  8 C        3.5290    -0.8720     1.3720 C.3   1 <1>   0.0510 
  9 O        3.0820     4.2630    -0.5940 O.2   1 <1>  -0.5750 
 10 C        4.4370     2.4120    -0.2400 C.2   1 <1>   0.2700 
 11 N        5.7070     0.6460     0.0220 N.pl3 1 <1>  -0.7040 
 12 N        5.7260     2.6740    -0.7610 N.pl3 1 <1>  -0.7680 
 13 C        6.4700     1.5590    -0.5870 C.cat 1 <1>   1.0680 
 14 C        6.0880     4.0450    -1.2500 C.3   1 <1>   0.3470 
 15 N        7.7490     1.2540    -0.9470 N.pl3 1 <1>  -0.5970 
 16 C        6.7260     4.9380    -0.1490 C.3   1 <1>   0.1920 
 17 C        8.3500    -0.1160    -0.7670 C.3   1 <1>   0.1590 
 18 C        8.7680     2.1700    -1.5630 C.3   1 <1>   0.1590 
 19 O        7.7340     4.2550     0.5150 O.3   1 <1>  -0.6840 
 20 C        5.7440     5.4000     0.9280 C.3   1 <1>  -0.2480 
 21 C        9.6880    -0.0420    -0.0150 C.3   1 <1>   0.1110 
 22 C       10.0930     2.1310    -0.7820 C.3   1 <1>   0.1110 
 23 O       10.5540     0.8190    -0.6820 O.3   1 <1>  -0.5650 
 24 H        0.3310     2.9720     1.5410 H     1 <1>   0.0710 
 25 H        0.1890     3.0220    -0.2030 H     1 <1>   0.0710 
 26 H        0.9890     4.3220     0.6580 H     1 <1>   0.0710 
 27 H        2.7560    -1.0790     2.0930 H     1 <1>   0.0710 
 28 H        4.4790    -1.0100     1.8570 H     1 <1>   0.0710 
 29 H        3.4330    -1.5700     0.5590 H     1 <1>   0.0710 
 30 H        6.0200    -0.2810     0.2810 H     1 <1>   0.4440 
 31 H        5.2120     4.5430    -1.6230 H     1 <1>   0.0710 
 32 H        6.7410     3.9780    -2.0980 H     1 <1>   0.0710 
 33 H        7.1670     5.8030    -0.6140 H     1 <1>   0.0710 
 34 H        8.5290    -0.5510    -1.7370 H     1 <1>   0.0710 
 35 H        7.6990    -0.7810    -0.2320 H     1 <1>   0.0710 
 36 H        8.4500     3.1850    -1.5860 H     1 <1>   0.0710 
 37 H        8.9560     1.8630    -2.5770 H     1 <1>   0.0710 
 38 H        8.0820     4.8110     1.2430 H     1 <1>   0.3940 
 39 H        5.3460     4.5660     1.4760 H     1 <1>   0.0710 
 40 H        4.9270     5.9330     0.4740 H     1 <1>   0.0710 
 41 H        6.2290     6.0720     1.6130 H     1 <1>   0.0710 
 42 H       10.1550    -1.0110     0.0170 H     1 <1>   0.0710 
 43 H        9.5530     0.3120     0.9930 H     1 <1>   0.0710 
 44 H        9.9700     2.5350     0.2080 H     1 <1>   0.0710 
 45 H       10.8450     2.7040    -1.2960 H     1 <1>   0.0710 
@<TRIPOS>BOND
  1   1   2  2   
  2   2   3  am  
  3   2   4  am  
  4   3   5  am  
  5   3   6  1   
  6   4   7  1   
  7   4   8  1   
  8   5   9  2   
  9   5  10  1   
 10   6  24  1   
 11   6  25  1   
 12   6  26  1   
 13   7  10  2   
 14   7  11  1   
 15   8  27  1   
 16   8  28  1   
 17   8  29  1   
 18  10  12  1   
 19  11  13  ar  
 20  11  30  1   
 21  12  13  ar  
 22  12  14  1   
 23  13  15  ar  
 24  14  16  1   
 25  14  31  1   
 26  14  32  1   
 27  15  17  1   
 28  15  18  1   
 29  16  19  1   
 30  16  20  1   
 31  16  33  1   
 32  17  21  1   
 33  17  34  1   
 34  17  35  1   
 35  18  22  1   
 36  18  36  1   
 37  18  37  1   
 38  19  38  1   
 39  20  39  1   
 40  20  40  1   
 41  20  41  1   
 42  21  23  1   
 43  21  42  1   
 44  21  43  1   
 45  22  23  1   
 46  22  44  1   
 47  22  45  1   
@<TRIPOS>SUBSTRUCTURE
  1 ****  12 GROUP 4 **** **** 0

# MOE 2024.06 (io_trps.svl 2023.06)
