@<TRIPOS>MOLECULE
3-(2-Methoxy-ethyl)-8-(2-methoxy-5-methyl-phenyl)-1,6-dimethyl-5,6,7,8-tetrahydr
58 61 1 0 0 
SMALL
USER_CHARGES


@<TRIPOS>ATOM
  1 O        0.2930     0.7470    -0.9260 O.2   1 <1>  -0.5740 
  2 C        1.3650     1.0210    -0.4260 C.2   1 <1>   0.6870 
  3 N        1.5810     2.2860     0.1110 N.am  1 <1>  -0.4250 
  4 N        2.3800     0.0740    -0.4100 N.am  1 <1>  -0.4410 
  5 C        2.8280     2.6590     0.5940 C.2   1 <1>   0.7000 
  6 C        0.4480     3.2640     0.1580 C.3   1 <1>   0.1340 
  7 C        3.6120     0.4510     0.0880 C.2   1 <1>   0.4210 
  8 C        2.1580    -1.3010    -0.9470 C.3   1 <1>   0.0530 
  9 O        3.0310     3.7870     1.0090 O.2   1 <1>  -0.5740 
 10 C        3.8730     1.6830     0.5760 C.2   1 <1>   0.2720 
 11 C        0.3450     4.0370    -1.1560 C.3   1 <1>   0.1140 
 12 N        4.7470    -0.2930     0.1610 N.pl3 1 <1>  -0.7030 
 13 N        5.2250     1.6740     0.9500 N.pl3 1 <1>  -0.7670 
 14 O       -0.6730     4.9730    -1.0240 O.3   1 <1>  -0.5640 
 15 C        5.7090     0.4680     0.6770 C.cat 1 <1>   1.0690 
 16 C        6.0170     2.7940     1.4990 C.3   1 <1>   0.3490 
 17 C       -0.8980     5.7270    -2.1710 C.3   1 <1>   0.0330 
 18 N        6.9870     0.1130     0.9150 N.pl3 1 <1>  -0.5790 
 19 C        7.5060     2.5490     1.2000 C.3   1 <1>  -0.0870 
 20 C        7.5080    -1.1600     0.6010 C.ar  1 <1>   0.3060 
 21 C        7.9150     1.1020     1.5360 C.3   1 <1>   0.1620 
 22 C        8.3900     3.5490     1.9600 C.3   1 <1>  -0.2460 
 23 C        7.4600    -1.6810    -0.7010 C.ar  1 <1>   0.0760 
 24 C        8.0790    -1.9250     1.6100 C.ar  1 <1>  -0.1560 
 25 O        6.8890    -0.9220    -1.6820 O.3   1 <1>  -0.3670 
 26 C        7.9810    -2.9440    -0.9590 C.ar  1 <1>  -0.1560 
 27 C        8.5960    -3.1830     1.3510 C.ar  1 <1>  -0.1500 
 28 C        7.1810    -1.1670    -3.0450 C.3   1 <1>   0.0330 
 29 C        8.5440    -3.6860     0.0630 C.ar  1 <1>  -0.1560 
 30 C        9.2200    -4.0100     2.4610 C.3   1 <1>  -0.1030 
 31 H        0.5930     3.9590     0.9670 H     1 <1>   0.0730 
 32 H       -0.4770     2.7400     0.3330 H     1 <1>   0.0730 
 33 H        1.1080    -1.5420    -0.9520 H     1 <1>   0.0730 
 34 H        2.6630    -2.0280    -0.3360 H     1 <1>   0.0730 
 35 H        2.5280    -1.3600    -1.9560 H     1 <1>   0.0730 
 36 H        0.0960     3.3720    -1.9660 H     1 <1>   0.0730 
 37 H        1.2620     4.5610    -1.3610 H     1 <1>   0.0730 
 38 H        4.9330    -1.2160    -0.2250 H     1 <1>   0.4460 
 39 H        5.8520     2.8530     2.5620 H     1 <1>   0.0730 
 40 H        5.7020     3.7240     1.0530 H     1 <1>   0.0730 
 41 H       -1.6980     6.4160    -1.9660 H     1 <1>   0.0730 
 42 H       -1.1810     5.0720    -2.9770 H     1 <1>   0.0730 
 43 H       -0.0040     6.2720    -2.4190 H     1 <1>   0.0730 
 44 H        7.6690     2.7090     0.1470 H     1 <1>   0.0730 
 45 H        8.9170     0.9250     1.1790 H     1 <1>   0.0730 
 46 H        7.9100     0.9600     2.6040 H     1 <1>   0.0730 
 47 H        8.2770     3.4370     3.0250 H     1 <1>   0.0730 
 48 H        8.1290     4.5600     1.6940 H     1 <1>   0.0730 
 49 H        9.4270     3.3980     1.7100 H     1 <1>   0.0730 
 50 H        8.1200    -1.5380     2.6110 H     1 <1>   0.1440 
 51 H        7.9590    -3.3750    -1.9430 H     1 <1>   0.1440 
 52 H        6.7730    -0.3610    -3.6280 H     1 <1>   0.0730 
 53 H        6.7270    -2.0950    -3.3440 H     1 <1>   0.0730 
 54 H        8.2490    -1.2040    -3.1750 H     1 <1>   0.0730 
 55 H        8.9470    -4.6630    -0.1480 H     1 <1>   0.1440 
 56 H        8.9020    -3.6610     3.4270 H     1 <1>   0.0730 
 57 H       10.2920    -3.9460     2.4060 H     1 <1>   0.0730 
 58 H        8.9310    -5.0420     2.3640 H     1 <1>   0.0730 
@<TRIPOS>BOND
  1   1   2  2   
  2   2   3  am  
  3   2   4  am  
  4   3   5  am  
  5   3   6  1   
  6   4   7  1   
  7   4   8  1   
  8   5   9  2   
  9   5  10  1   
 10   6  11  1   
 11   6  31  1   
 12   6  32  1   
 13   7  10  2   
 14   7  12  1   
 15   8  33  1   
 16   8  34  1   
 17   8  35  1   
 18  10  13  1   
 19  11  14  1   
 20  11  36  1   
 21  11  37  1   
 22  12  15  ar  
 23  12  38  1   
 24  13  15  ar  
 25  13  16  1   
 26  14  17  1   
 27  15  18  ar  
 28  16  19  1   
 29  16  39  1   
 30  16  40  1   
 31  17  41  1   
 32  17  42  1   
 33  17  43  1   
 34  18  20  1   
 35  18  21  1   
 36  19  21  1   
 37  19  22  1   
 38  19  44  1   
 39  20  23  ar  
 40  20  24  ar  
 41  21  45  1   
 42  21  46  1   
 43  22  47  1   
 44  22  48  1   
 45  22  49  1   
 46  23  25  1   
 47  23  26  ar  
 48  24  27  ar  
 49  24  50  1   
 50  25  28  1   
 51  26  29  ar  
 52  26  51  1   
 53  27  29  ar  
 54  27  30  1   
 55  28  52  1   
 56  28  53  1   
 57  28  54  1   
 58  29  55  1   
 59  30  56  1   
 60  30  57  1   
 61  30  58  1   
@<TRIPOS>SUBSTRUCTURE
  1 ****  12 GROUP 4 **** **** 0

# MOE 2024.06 (io_trps.svl 2023.06)
