@<TRIPOS>MOLECULE
2-(5-Ethyl-4H-[1,2,4]triazol-3-ylsulfanyl)-N-(3-methoxy-phenyl)-acetamide
36 37 1 0 0 
SMALL
USER_CHARGES


@<TRIPOS>ATOM
  1 S       -0.8060     0.5700     0.0530 S.3   1 <1>  -0.2860 
  2 C        0.7130    -0.3330     0.3510 C.2   1 <1>   0.2420 
  3 C       -1.0770     1.4690     1.6570 C.3   1 <1>   0.1310 
  4 N        1.1750    -0.6400     1.5110 N.2   1 <1>  -0.3380 
  5 N        1.4830    -0.7410    -0.6450 N.pl3 1 <1>   0.0330 
  6 C       -1.3910     2.9400     1.4180 C.2   1 <1>   0.5690 
  7 N        2.3190    -1.2980     1.2810 N.2   1 <1>  -0.3380 
  8 C        2.4860    -1.3420    -0.0010 C.2   1 <1>   0.0060 
  9 O       -2.3940     3.3980     1.9050 O.2   1 <1>  -0.5700 
 10 N       -0.5820     3.7570     0.6860 N.am  1 <1>  -0.5470 
 11 C        3.6670    -1.9890    -0.7020 C.3   1 <1>   0.0200 
 12 C        0.5890     3.4900    -0.0320 C.ar  1 <1>   0.1170 
 13 C        4.5180    -0.9530    -1.4430 C.3   1 <1>  -0.2400 
 14 C        1.7030     2.9160     0.5680 C.ar  1 <1>  -0.1500 
 15 C        0.6400     3.8100    -1.3830 C.ar  1 <1>  -0.1500 
 16 C        2.8470     2.6510    -0.1780 C.ar  1 <1>   0.0830 
 17 C        1.7760     3.5520    -2.1290 C.ar  1 <1>  -0.1500 
 18 O        3.9700     2.0870     0.3320 O.3   1 <1>  -0.3630 
 19 C        2.8760     2.9710    -1.5250 C.ar  1 <1>  -0.1500 
 20 C        4.0630     1.7460     1.6990 C.3   1 <1>   0.0400 
 21 H       -0.1910     1.3740     2.2530 H     1 <1>   0.0800 
 22 H       -1.8970     0.9830     2.1510 H     1 <1>   0.0800 
 23 H        1.3340    -0.5970    -1.6430 H     1 <1>   0.2700 
 24 H       -0.9870     4.6850     0.5560 H     1 <1>   0.3700 
 25 H        3.3080    -2.7320    -1.3930 H     1 <1>   0.0800 
 26 H        4.2760    -2.4900     0.0310 H     1 <1>   0.0800 
 27 H        3.9390    -0.4460    -2.1920 H     1 <1>   0.0800 
 28 H        5.3540    -1.4340    -1.9190 H     1 <1>   0.0800 
 29 H        4.8940    -0.2240    -0.7470 H     1 <1>   0.0800 
 30 H        1.6630     2.6830     1.6130 H     1 <1>   0.1500 
 31 H       -0.2160     4.2580    -1.8540 H     1 <1>   0.1500 
 32 H        1.8050     3.8030    -3.1750 H     1 <1>   0.1500 
 33 H        3.7660     2.7670    -2.0930 H     1 <1>   0.1500 
 34 H        5.0170     1.2790     1.8630 H     1 <1>   0.0800 
 35 H        3.2770     1.0570     1.9470 H     1 <1>   0.0800 
 36 H        3.9860     2.6420     2.2880 H     1 <1>   0.0800 
@<TRIPOS>BOND
  1   1   2  1   
  2   1   3  1   
  3   2   4  2   
  4   2   5  1   
  5   3   6  1   
  6   3  21  1   
  7   3  22  1   
  8   4   7  1   
  9   5   8  1   
 10   5  23  1   
 11   6   9  2   
 12   6  10  am  
 13   7   8  2   
 14   8  11  1   
 15  10  12  1   
 16  10  24  1   
 17  11  13  1   
 18  11  25  1   
 19  11  26  1   
 20  12  14  ar  
 21  12  15  ar  
 22  13  27  1   
 23  13  28  1   
 24  13  29  1   
 25  14  16  ar  
 26  14  30  1   
 27  15  17  ar  
 28  15  31  1   
 29  16  18  1   
 30  16  19  ar  
 31  17  19  ar  
 32  17  32  1   
 33  18  20  1   
 34  19  33  1   
 35  20  34  1   
 36  20  35  1   
 37  20  36  1   
@<TRIPOS>SUBSTRUCTURE
  1 ****  14 GROUP 4 **** **** 0

# MOE 2024.06 (io_trps.svl 2023.06)
