@<TRIPOS>MOLECULE
6,7-Dimethoxy-2-oxo-1,2,3,4-tetrahydro-quinoline-4-carboxylic acid (4-methoxy-3,
52 54 1 0 0 
SMALL
USER_CHARGES


@<TRIPOS>ATOM
  1 O       -1.0060     3.1560     4.1100 O.2   1 <1>  -0.5700 
  2 C       -1.8730     3.0150     3.2870 C.2   1 <1>   0.5690 
  3 N       -1.8140     2.0350     2.3590 N.am  1 <1>  -0.5470 
  4 C       -3.0750     3.9300     3.2710 C.3   1 <1>  -0.0990 
  5 C       -2.6290     1.9670     1.2270 C.ar  1 <1>   0.1170 
  6 C       -3.5100     4.2670     1.8320 C.3   1 <1>   0.1250 
  7 C       -3.4810     3.0270     0.9300 C.ar  1 <1>  -0.1430 
  8 C       -2.5630     0.8710     0.3820 C.ar  1 <1>  -0.1500 
  9 C       -2.7360     5.4840     1.2960 C.2   1 <1>   0.5690 
 10 C       -4.2800     2.9580    -0.1990 C.ar  1 <1>  -0.1500 
 11 C       -3.3420     0.8080    -0.7680 C.ar  1 <1>   0.0830 
 12 O       -3.1920     6.5720     1.5460 O.2   1 <1>  -0.5700 
 13 N       -1.5730     5.4320     0.5870 N.am  1 <1>  -0.5470 
 14 C       -4.2270     1.8620    -1.0450 C.ar  1 <1>   0.0830 
 15 O       -3.2370    -0.2390    -1.6380 O.3   1 <1>  -0.3630 
 16 C       -0.8440     4.3580     0.0720 C.ar  1 <1>   0.1170 
 17 O       -5.0550     1.9180    -2.1270 O.3   1 <1>  -0.3630 
 18 C       -2.1420    -1.1300    -1.5830 C.3   1 <1>   0.0400 
 19 C        0.2120     3.8140     0.7880 C.ar  1 <1>  -0.1500 
 20 C       -1.1720     3.8200    -1.1640 C.ar  1 <1>  -0.1500 
 21 C       -5.7570     0.7600    -2.5240 C.3   1 <1>   0.0400 
 22 C        0.9140     2.7250     0.3000 C.ar  1 <1>  -0.1430 
 23 C       -0.4830     2.7360    -1.6780 C.ar  1 <1>  -0.1430 
 24 C        0.5670     2.1920    -0.9400 C.ar  1 <1>   0.0830 
 25 C        2.0410     2.1310     1.1330 C.3   1 <1>  -0.0970 
 26 C       -0.9160     2.1750    -3.0260 C.3   1 <1>  -0.0970 
 27 O        1.2480     1.1240    -1.4200 O.3   1 <1>  -0.3620 
 28 C        2.3310     1.4300    -2.2670 C.3   1 <1>   0.0400 
 29 H       -0.9780     1.4530     2.3910 H     1 <1>   0.3700 
 30 H       -2.8580     4.8290     3.8200 H     1 <1>   0.0800 
 31 H       -3.8760     3.4180     3.7710 H     1 <1>   0.0800 
 32 H       -4.5360     4.5820     1.8920 H     1 <1>   0.0800 
 33 H       -1.8840     0.0840     0.6380 H     1 <1>   0.1500 
 34 H       -4.9490     3.7630    -0.4460 H     1 <1>   0.1500 
 35 H       -1.2150     6.3580     0.3550 H     1 <1>   0.3700 
 36 H       -2.1740    -1.7530    -2.4580 H     1 <1>   0.0800 
 37 H       -2.2300    -1.7370    -0.7000 H     1 <1>   0.0800 
 38 H       -1.2270    -0.5640    -1.5700 H     1 <1>   0.0800 
 39 H        0.4680     4.2420     1.7410 H     1 <1>   0.1500 
 40 H       -1.9890     4.2490    -1.7170 H     1 <1>   0.1500 
 41 H       -6.6290     1.0680    -3.0710 H     1 <1>   0.0800 
 42 H       -6.0450     0.2030    -1.6500 H     1 <1>   0.0800 
 43 H       -5.1210     0.1690    -3.1580 H     1 <1>   0.0800 
 44 H        1.9670     2.4500     2.1580 H     1 <1>   0.0800 
 45 H        2.9900     2.4460     0.7410 H     1 <1>   0.0800 
 46 H        1.9940     1.0570     1.1100 H     1 <1>   0.0800 
 47 H       -1.9820     2.2620    -3.1400 H     1 <1>   0.0800 
 48 H       -0.6590     1.1360    -3.1130 H     1 <1>   0.0800 
 49 H       -0.4370     2.7200    -3.8190 H     1 <1>   0.0800 
 50 H        2.7950     0.5090    -2.5690 H     1 <1>   0.0800 
 51 H        3.0350     2.0390    -1.7280 H     1 <1>   0.0800 
 52 H        1.9640     1.9600    -3.1280 H     1 <1>   0.0800 
@<TRIPOS>BOND
  1   1   2  2   
  2   2   3  am  
  3   2   4  1   
  4   3   5  1   
  5   3  29  1   
  6   4   6  1   
  7   4  30  1   
  8   4  31  1   
  9   5   7  ar  
 10   5   8  ar  
 11   6   7  1   
 12   6   9  1   
 13   6  32  1   
 14   7  10  ar  
 15   8  11  ar  
 16   8  33  1   
 17   9  12  2   
 18   9  13  am  
 19  10  14  ar  
 20  10  34  1   
 21  11  14  ar  
 22  11  15  1   
 23  13  16  1   
 24  13  35  1   
 25  14  17  1   
 26  15  18  1   
 27  16  19  ar  
 28  16  20  ar  
 29  17  21  1   
 30  18  36  1   
 31  18  37  1   
 32  18  38  1   
 33  19  22  ar  
 34  19  39  1   
 35  20  23  ar  
 36  20  40  1   
 37  21  41  1   
 38  21  42  1   
 39  21  43  1   
 40  22  24  ar  
 41  22  25  1   
 42  23  24  ar  
 43  23  26  1   
 44  24  27  1   
 45  25  44  1   
 46  25  45  1   
 47  25  46  1   
 48  26  47  1   
 49  26  48  1   
 50  26  49  1   
 51  27  28  1   
 52  28  50  1   
 53  28  51  1   
 54  28  52  1   
@<TRIPOS>SUBSTRUCTURE
  1 ****   5 GROUP 4 **** **** 0

# MOE 2024.06 (io_trps.svl 2023.06)
