@<TRIPOS>MOLECULE
1-(4-Ethoxy-phenyl)-5-oxo-pyrrolidine-3-carboxylic acid [1,3,4]thiadiazol-2-ylam
39 41 1 0 0 
SMALL
USER_CHARGES


@<TRIPOS>ATOM
  1 S       -1.8500     2.0900     0.3550 S.3   1 <1>  -0.0800 
  2 C       -2.0590     0.4740    -0.2400 C.2   1 <1>   0.4420 
  3 C       -0.5040     2.2290    -0.7220 C.2   1 <1>   0.2280 
  4 N       -1.1870     0.1680    -1.1290 N.2   1 <1>  -0.3380 
  5 N       -3.1030    -0.2510     0.2990 N.am  1 <1>  -0.4940 
  6 N       -0.3010     1.1750    -1.4010 N.2   1 <1>  -0.3380 
  7 C       -3.4840    -1.5360     0.0340 C.2   1 <1>   0.5690 
  8 O       -2.8980    -2.2570    -0.7300 O.2   1 <1>  -0.5700 
  9 C       -4.7000    -2.0850     0.7700 C.3   1 <1>  -0.0190 
 10 C       -5.2210    -3.4140     0.1990 C.3   1 <1>   0.1400 
 11 C       -5.9250    -1.1570     0.7590 C.3   1 <1>  -0.0990 
 12 N       -6.6740    -3.3860     0.4640 N.am  1 <1>  -0.4770 
 13 C       -7.0800    -2.1190     0.7620 C.2   1 <1>   0.5690 
 14 C       -7.4780    -4.5250     0.2530 C.ar  1 <1>   0.1170 
 15 O       -8.2010    -1.7480     1.0070 O.2   1 <1>  -0.5700 
 16 C       -7.0730    -5.7810     0.6960 C.ar  1 <1>  -0.1500 
 17 C       -8.6950    -4.4250    -0.4130 C.ar  1 <1>  -0.1500 
 18 C       -7.8490    -6.9050     0.4720 C.ar  1 <1>  -0.1500 
 19 C       -9.4760    -5.5440    -0.6390 C.ar  1 <1>  -0.1500 
 20 C       -9.0610    -6.7900    -0.2030 C.ar  1 <1>   0.0820 
 21 O       -9.8850    -7.8380    -0.4690 O.3   1 <1>  -0.3630 
 22 C       -9.5680    -9.1380    -0.0330 C.3   1 <1>   0.1200 
 23 C      -10.6940   -10.0700    -0.4730 C.3   1 <1>  -0.2400 
 24 H        0.0390     3.1570    -0.7400 H     1 <1>   0.1500 
 25 H       -3.6550     0.2530     0.9870 H     1 <1>   0.3700 
 26 H       -4.4140    -2.2680     1.7900 H     1 <1>   0.0800 
 27 H       -4.7420    -4.2510     0.6740 H     1 <1>   0.0800 
 28 H       -5.0690    -3.4720    -0.8670 H     1 <1>   0.0800 
 29 H       -5.9770    -0.5750    -0.1430 H     1 <1>   0.0800 
 30 H       -5.9630    -0.5180     1.6220 H     1 <1>   0.0800 
 31 H       -6.1470    -5.8860     1.2280 H     1 <1>   0.1500 
 32 H       -9.0360    -3.4640    -0.7560 H     1 <1>   0.1500 
 33 H       -7.4970    -7.8530     0.8290 H     1 <1>   0.1500 
 34 H      -10.4150    -5.4550    -1.1550 H     1 <1>   0.1500 
 35 H       -9.4820    -9.1260     1.0400 H     1 <1>   0.0800 
 36 H       -8.6350    -9.4310    -0.4820 H     1 <1>   0.0800 
 37 H      -11.6240    -9.7570    -0.0330 H     1 <1>   0.0800 
 38 H      -10.4820   -11.0740    -0.1530 H     1 <1>   0.0800 
 39 H      -10.7820   -10.0610    -1.5450 H     1 <1>   0.0800 
@<TRIPOS>BOND
  1   1   2  1   
  2   1   3  1   
  3   2   4  2   
  4   2   5  1   
  5   3   6  2   
  6   3  24  1   
  7   4   6  1   
  8   5   7  am  
  9   5  25  1   
 10   7   8  2   
 11   7   9  1   
 12   9  10  1   
 13   9  11  1   
 14   9  26  1   
 15  10  12  1   
 16  10  27  1   
 17  10  28  1   
 18  11  13  1   
 19  11  29  1   
 20  11  30  1   
 21  12  13  am  
 22  12  14  1   
 23  13  15  2   
 24  14  16  ar  
 25  14  17  ar  
 26  16  18  ar  
 27  16  31  1   
 28  17  19  ar  
 29  17  32  1   
 30  18  20  ar  
 31  18  33  1   
 32  19  20  ar  
 33  19  34  1   
 34  20  21  1   
 35  21  22  1   
 36  22  23  1   
 37  22  35  1   
 38  22  36  1   
 39  23  37  1   
 40  23  38  1   
 41  23  39  1   
@<TRIPOS>SUBSTRUCTURE
  1 ****  10 GROUP 4 **** **** 0

# MOE 2024.06 (io_trps.svl 2023.06)
