@<TRIPOS>MOLECULE
4-Methoxymethyl-6-methyl-2-(2-oxo-2-piperidin-1-yl-ethoxy)-nicotinonitrile
43 44 1 0 0 
SMALL
USER_CHARGES


@<TRIPOS>ATOM
  1 O       -0.1260    -0.0860    -0.2630 O.2   1 <1>  -0.5700 
  2 C       -0.3770     1.0430     0.0960 C.2   1 <1>   0.5690 
  3 N        0.6100     1.9980     0.1950 N.am  1 <1>  -0.6600 
  4 C       -1.8320     1.3400     0.4600 C.3   1 <1>   0.1810 
  5 C        2.0000     1.6810    -0.2560 C.3   1 <1>   0.1400 
  6 C        0.3590     3.3930     0.6760 C.3   1 <1>   0.1400 
  7 O       -2.3140     2.5070    -0.1980 O.3   1 <1>  -0.3620 
  8 C        2.6870     2.9330    -0.8120 C.3   1 <1>  -0.1600 
  9 C        1.6360     4.0060     1.2590 C.3   1 <1>  -0.1600 
 10 C       -3.5630     2.9710     0.0110 C.ar  1 <1>   0.3920 
 11 C        2.7780     4.0620     0.2290 C.3   1 <1>  -0.1600 
 12 N       -4.3710     2.2270     0.7600 N.ar  1 <1>  -0.6200 
 13 C       -3.9100     4.1920    -0.5690 C.ar  1 <1>   0.0730 
 14 C       -5.5880     2.7020     0.9430 C.ar  1 <1>   0.1670 
 15 C       -2.9400     4.9180    -1.3340 C.1   1 <1>   0.4840 
 16 C       -5.1990     4.6670    -0.3700 C.ar  1 <1>  -0.1440 
 17 C       -6.0410     3.8950     0.4060 C.ar  1 <1>  -0.1500 
 18 C       -6.5050     1.8540     1.7990 C.3   1 <1>  -0.0960 
 19 N       -2.1860     5.5060    -1.9590 N.1   1 <1>  -0.5570 
 20 C       -5.6760     5.9870    -0.9570 C.3   1 <1>   0.2630 
 21 O       -5.1400     7.0050    -0.1800 O.3   1 <1>  -0.5600 
 22 C       -5.3320     8.2820    -0.6980 C.3   1 <1>   0.0400 
 23 H       -1.9150     1.4870     1.5200 H     1 <1>   0.0800 
 24 H       -2.4500     0.5120     0.1650 H     1 <1>   0.0800 
 25 H        1.9720     0.9220    -1.0210 H     1 <1>   0.0800 
 26 H        2.5580     1.2960     0.5790 H     1 <1>   0.0800 
 27 H       -0.4060     3.3910     1.4320 H     1 <1>   0.0800 
 28 H        0.0170     3.9920    -0.1520 H     1 <1>   0.0800 
 29 H        2.1220     3.2720    -1.6640 H     1 <1>   0.0800 
 30 H        3.6730     2.6800    -1.1600 H     1 <1>   0.0800 
 31 H        1.9390     3.4120     2.1030 H     1 <1>   0.0800 
 32 H        1.4280     4.9980     1.6190 H     1 <1>   0.0800 
 33 H        2.7540     5.0060    -0.2870 H     1 <1>   0.0800 
 34 H        3.7170     3.9990     0.7520 H     1 <1>   0.0800 
 35 H       -7.0460     4.2230     0.6020 H     1 <1>   0.1500 
 36 H       -6.0750     1.7360     2.7770 H     1 <1>   0.0800 
 37 H       -6.6170     0.8830     1.3530 H     1 <1>   0.0800 
 38 H       -7.4740     2.3060     1.8990 H     1 <1>   0.0800 
 39 H       -6.7500     6.0620    -0.9250 H     1 <1>   0.0800 
 40 H       -5.3370     6.1010    -1.9730 H     1 <1>   0.0800 
 41 H       -4.9010     8.9890    -0.0110 H     1 <1>   0.0800 
 42 H       -6.3860     8.4730    -0.8010 H     1 <1>   0.0800 
 43 H       -4.8340     8.3580    -1.6500 H     1 <1>   0.0800 
@<TRIPOS>BOND
  1   1   2  2   
  2   2   3  am  
  3   2   4  1   
  4   3   5  1   
  5   3   6  1   
  6   4   7  1   
  7   4  23  1   
  8   4  24  1   
  9   5   8  1   
 10   5  25  1   
 11   5  26  1   
 12   6   9  1   
 13   6  27  1   
 14   6  28  1   
 15   7  10  1   
 16   8  11  1   
 17   8  29  1   
 18   8  30  1   
 19   9  11  1   
 20   9  31  1   
 21   9  32  1   
 22  10  12  ar  
 23  10  13  ar  
 24  11  33  1   
 25  11  34  1   
 26  12  14  ar  
 27  13  15  1   
 28  13  16  ar  
 29  14  17  ar  
 30  14  18  1   
 31  15  19  3   
 32  16  17  ar  
 33  16  20  1   
 34  17  35  1   
 35  18  36  1   
 36  18  37  1   
 37  18  38  1   
 38  20  21  1   
 39  20  39  1   
 40  20  40  1   
 41  21  22  1   
 42  22  41  1   
 43  22  42  1   
 44  22  43  1   
@<TRIPOS>SUBSTRUCTURE
  1 ****   7 GROUP 4 **** **** 0

# MOE 2024.06 (io_trps.svl 2023.06)
