@<TRIPOS>MOLECULE
2-[(Z)-Cyclopentylimino]-6-methyl-10-oxo-1,10-dihydro-2H-1,9,10a-triaza-anthrace
57 61 1 0 0 
SMALL
USER_CHARGES


@<TRIPOS>ATOM
  1 O        0.1010    -0.3060     0.6070 O.2   1 <1>  -0.5700 
  2 C        0.1190    -1.4790     0.3090 C.2   1 <1>   0.8650 
  3 N       -1.0830    -2.0900    -0.0930 N.pl3 1 <1>  -0.5760 
  4 C        1.3360    -2.2220     0.3620 C.ar  1 <1>   0.0860 
  5 C       -1.0880    -3.3960    -0.4520 C.cat 1 <1>   0.7390 
  6 C       -2.2630    -1.3790    -0.1310 C.2   1 <1>   0.1910 
  7 C        1.2590    -3.5550    -0.0210 C.ar  1 <1>   0.6590 
  8 C        2.5770    -1.7360     0.7550 C.ar  1 <1>  -0.1500 
  9 N        0.0660    -4.0750    -0.4100 N.pl3 1 <1>  -0.6530 
 10 C       -2.2810    -4.0080    -0.8560 C.2   1 <1>  -0.1800 
 11 C       -3.4410    -1.9580    -0.5230 C.2   1 <1>  -0.1380 
 12 N        2.2560    -4.4020    -0.0470 N.ar  1 <1>  -0.6200 
 13 C        3.6620    -2.5960     0.7480 C.ar  1 <1>   0.0860 
 14 C       -3.4550    -3.3060    -0.8950 C.2   1 <1>  -0.1500 
 15 C       -4.7450    -1.1760    -0.5650 C.3   1 <1>  -0.1020 
 16 C        3.4370    -3.9310     0.3370 C.ar  1 <1>   0.4100 
 17 C        4.9770    -2.1460     1.1350 C.2   1 <1>   0.5440 
 18 N        4.4680    -4.8200     0.3130 N.pl3 1 <1>  -0.8690 
 19 O        5.6810    -2.8150     1.8670 O.2   1 <1>  -0.5700 
 20 N        5.4640    -0.9570     0.6700 N.am  1 <1>  -0.7300 
 21 C        4.4530    -6.2560    -0.0170 C.3   1 <1>   0.2890 
 22 C        6.8730    -0.5330     0.8130 C.3   1 <1>   0.2840 
 23 C        4.6210    -7.0440     1.2750 C.3   1 <1>  -0.1600 
 24 C        5.7260    -6.5750    -0.7880 C.3   1 <1>  -0.1600 
 25 C        7.5550    -0.7470    -0.5240 C.ar  1 <1>  -0.1430 
 26 C        6.1200    -6.9960     1.5970 C.3   1 <1>  -0.1600 
 27 C        6.8310    -6.7120     0.2670 C.3   1 <1>  -0.1600 
 28 C        7.8470     0.3230    -1.3560 C.ar  1 <1>   0.1600 
 29 C        7.8850    -2.0220    -0.9390 C.ar  1 <1>  -0.1500 
 30 N        8.4210     0.2250    -2.5430 N.ar  1 <1>  -0.6200 
 31 C        8.4880    -2.1440    -2.1720 C.ar  1 <1>  -0.1500 
 32 C        8.7290    -1.0050    -2.9220 C.ar  1 <1>   0.1600 
 33 H       -2.2490    -0.3370     0.1580 H     1 <1>   0.1500 
 34 H        2.6920    -0.7100     1.0680 H     1 <1>   0.1500 
 35 H        0.1140    -5.0610    -0.6690 H     1 <1>   0.4500 
 36 H       -2.2680    -5.0450    -1.1370 H     1 <1>   0.1500 
 37 H       -4.3800    -3.7680    -1.2050 H     1 <1>   0.1500 
 38 H       -5.4690    -1.6280     0.0900 H     1 <1>   0.0800 
 39 H       -5.1420    -1.1730    -1.5660 H     1 <1>   0.0800 
 40 H       -4.5990    -0.1550    -0.2570 H     1 <1>   0.0800 
 41 H        5.3190    -4.5520     0.8320 H     1 <1>   0.4000 
 42 H        4.9880    -0.4950    -0.1050 H     1 <1>   0.3700 
 43 H        3.5640    -6.5290    -0.5600 H     1 <1>   0.0800 
 44 H        7.3720    -1.1080     1.5760 H     1 <1>   0.0800 
 45 H        6.9090     0.5040     1.0980 H     1 <1>   0.0800 
 46 H        4.3360    -8.0650     1.0920 H     1 <1>   0.0800 
 47 H        4.0140    -6.6530     2.0720 H     1 <1>   0.0800 
 48 H        5.9490    -5.8280    -1.5290 H     1 <1>   0.0800 
 49 H        5.5960    -7.5220    -1.2820 H     1 <1>   0.0800 
 50 H        6.4510    -7.9210     2.0350 H     1 <1>   0.0800 
 51 H        6.3170    -6.1940     2.2890 H     1 <1>   0.0800 
 52 H        7.3840    -5.7920     0.3430 H     1 <1>   0.0800 
 53 H        7.5120    -7.5050     0.0080 H     1 <1>   0.0800 
 54 H        7.5930     1.3190    -1.0330 H     1 <1>   0.1500 
 55 H        7.6780    -2.8850    -0.3270 H     1 <1>   0.1500 
 56 H        8.7690    -3.1090    -2.5500 H     1 <1>   0.1500 
 57 H        9.2000    -1.1130    -3.8850 H     1 <1>   0.1500 
@<TRIPOS>BOND
  1   1   2  2   
  2   2   3  1   
  3   2   4  1   
  4   3   5  ar  
  5   3   6  1   
  6   4   7  ar  
  7   4   8  ar  
  8   5   9  ar  
  9   5  10  1   
 10   6  11  2   
 11   6  33  1   
 12   7   9  1   
 13   7  12  ar  
 14   8  13  ar  
 15   8  34  1   
 16   9  35  1   
 17  10  14  2   
 18  10  36  1   
 19  11  14  1   
 20  11  15  1   
 21  12  16  ar  
 22  13  16  ar  
 23  13  17  1   
 24  14  37  1   
 25  15  38  1   
 26  15  39  1   
 27  15  40  1   
 28  16  18  1   
 29  17  19  2   
 30  17  20  am  
 31  18  21  1   
 32  18  41  1   
 33  20  22  1   
 34  20  42  1   
 35  21  23  1   
 36  21  24  1   
 37  21  43  1   
 38  22  25  1   
 39  22  44  1   
 40  22  45  1   
 41  23  26  1   
 42  23  46  1   
 43  23  47  1   
 44  24  27  1   
 45  24  48  1   
 46  24  49  1   
 47  25  28  ar  
 48  25  29  ar  
 49  26  27  1   
 50  26  50  1   
 51  26  51  1   
 52  27  52  1   
 53  27  53  1   
 54  28  30  ar  
 55  28  54  1   
 56  29  31  ar  
 57  29  55  1   
 58  30  32  ar  
 59  31  32  ar  
 60  31  56  1   
 61  32  57  1   
@<TRIPOS>SUBSTRUCTURE
  1 ****  13 GROUP 4 **** **** 0

# MOE 2024.06 (io_trps.svl 2023.06)
