@<TRIPOS>MOLECULE
4-(5-Ethyl-2-methoxy-phenyl)-4-hydroxy-butyric acid
34 34 1 0 0 
SMALL
USER_CHARGES


@<TRIPOS>ATOM
  1 O       -0.5030    -0.4770     0.5550 O.co2 1 <1>  -0.9000 
  2 C       -1.4260    -0.5670    -0.2600 C.2   1 <1>   0.9060 
  3 O       -1.3580    -1.2770    -1.2680 O.co2 1 <1>  -0.9000 
  4 C       -2.6890     0.2330    -0.0310 C.3   1 <1>  -0.2660 
  5 C       -3.9370    -0.6610     0.1420 C.3   1 <1>  -0.1600 
  6 C       -5.2570     0.1260     0.1800 C.3   1 <1>   0.3440 
  7 O       -5.2790     0.9120     1.3140 O.3   1 <1>  -0.6800 
  8 C       -6.5500    -0.6990     0.1890 C.ar  1 <1>  -0.1430 
  9 C       -7.7700    -0.0530    -0.0190 C.ar  1 <1>   0.0820 
 10 C       -6.5490    -2.0740     0.3980 C.ar  1 <1>  -0.1500 
 11 O       -7.7520     1.2950    -0.2030 O.3   1 <1>  -0.3620 
 12 C       -8.9530    -0.7880    -0.0250 C.ar  1 <1>  -0.1500 
 13 C       -7.7270    -2.8050     0.3940 C.ar  1 <1>  -0.1430 
 14 C       -8.9190     2.0200    -0.5250 C.3   1 <1>   0.0400 
 15 C       -8.9290    -2.1540     0.1790 C.ar  1 <1>  -0.1500 
 16 C       -7.6970    -4.3080     0.6220 C.3   1 <1>  -0.0170 
 17 C       -7.6030    -5.0520    -0.7110 C.3   1 <1>  -0.2400 
 18 H       -2.8120     0.8780    -0.8790 H     1 <1>   0.0800 
 19 H       -2.5500     0.8430     0.8420 H     1 <1>   0.0800 
 20 H       -3.8300    -1.2450     1.0390 H     1 <1>   0.0800 
 21 H       -3.9730    -1.3390    -0.6930 H     1 <1>   0.0800 
 22 H       -5.2790     0.7890    -0.6680 H     1 <1>   0.0800 
 23 H       -6.1730     1.3010     1.3600 H     1 <1>   0.4000 
 24 H       -5.6250    -2.5970     0.5660 H     1 <1>   0.1500 
 25 H       -9.9040    -0.3180    -0.1840 H     1 <1>   0.1500 
 26 H       -8.6440     3.0490    -0.6670 H     1 <1>   0.0800 
 27 H       -9.6180     1.9370     0.2880 H     1 <1>   0.0800 
 28 H       -9.3350     1.6240    -1.4350 H     1 <1>   0.0800 
 29 H       -9.8490    -2.7120     0.1710 H     1 <1>   0.1500 
 30 H       -8.5860    -4.6120     1.1460 H     1 <1>   0.0800 
 31 H       -6.8520    -4.5640     1.2380 H     1 <1>   0.0800 
 32 H       -8.4510    -4.8160    -1.3290 H     1 <1>   0.0800 
 33 H       -7.5790    -6.1140    -0.5440 H     1 <1>   0.0800 
 34 H       -6.7070    -4.7620    -1.2320 H     1 <1>   0.0800 
@<TRIPOS>BOND
  1   1   2  ar  
  2   2   3  ar  
  3   2   4  1   
  4   4   5  1   
  5   4  18  1   
  6   4  19  1   
  7   5   6  1   
  8   5  20  1   
  9   5  21  1   
 10   6   7  1   
 11   6   8  1   
 12   6  22  1   
 13   7  23  1   
 14   8   9  ar  
 15   8  10  ar  
 16   9  11  1   
 17   9  12  ar  
 18  10  13  ar  
 19  10  24  1   
 20  11  14  1   
 21  12  15  ar  
 22  12  25  1   
 23  13  15  ar  
 24  13  16  1   
 25  14  26  1   
 26  14  27  1   
 27  14  28  1   
 28  15  29  1   
 29  16  17  1   
 30  16  30  1   
 31  16  31  1   
 32  17  32  1   
 33  17  33  1   
 34  17  34  1   
@<TRIPOS>SUBSTRUCTURE
  1 ****   8 GROUP 4 **** **** 0

# MOE 2024.06 (io_trps.svl 2023.06)
