@<TRIPOS>MOLECULE
N-(4-Fluoro-phenyl)-2-(5-propyl-[1,3,4]oxadiazol-2-ylsulfanyl)-acetamide
34 35 1 0 0 
SMALL
USER_CHARGES


@<TRIPOS>ATOM
  1 S       -1.0790     1.3700     0.2760 S.3   1 <1>  -0.2860 
  2 C        0.5530     1.9520    -0.1630 C.2   1 <1>   0.5340 
  3 C       -1.8100     0.9310    -1.3780 C.3   1 <1>   0.1310 
  4 O        1.3470     2.3520     0.7690 O.3   1 <1>  -0.2800 
  5 N        1.0420     2.0170    -1.3390 N.2   1 <1>  -0.3380 
  6 C       -3.2270     0.3920    -1.2510 C.2   1 <1>   0.5690 
  7 C        2.4070     2.6900     0.1030 C.2   1 <1>   0.2980 
  8 N        2.2720     2.5070    -1.1610 N.2   1 <1>  -0.3380 
  9 O       -3.8730     0.2860    -2.2630 O.2   1 <1>  -0.5700 
 10 N       -3.7060     0.0560    -0.0110 N.am  1 <1>  -0.5470 
 11 C        3.6100     3.2300     0.8610 C.3   1 <1>   0.0200 
 12 C       -4.9400    -0.4740     0.3970 C.ar  1 <1>   0.1170 
 13 C        4.7930     3.5900    -0.0540 C.3   1 <1>  -0.1600 
 14 C       -5.7890    -1.1690    -0.4650 C.ar  1 <1>  -0.1500 
 15 C       -5.3220    -0.3110     1.7280 C.ar  1 <1>  -0.1500 
 16 C        5.9830     4.1300     0.7480 C.3   1 <1>  -0.2400 
 17 C       -6.9940    -1.6820    -0.0160 C.ar  1 <1>  -0.1500 
 18 C       -6.5230    -0.8190     2.1930 C.ar  1 <1>  -0.1500 
 19 C       -7.3390    -1.4970     1.3080 C.ar  1 <1>   0.1900 
 20 F       -8.4750    -1.9810     1.7400 F     1 <1>  -0.1900 
 21 H       -1.1710     0.1930    -1.8250 H     1 <1>   0.0800 
 22 H       -1.8050     1.8240    -1.9760 H     1 <1>   0.0800 
 23 H       -3.0670     0.2800     0.7530 H     1 <1>   0.3700 
 24 H        3.9220     2.4870     1.5720 H     1 <1>   0.0800 
 25 H        3.3010     4.1030     1.4060 H     1 <1>   0.0800 
 26 H        4.4790     4.3330    -0.7680 H     1 <1>   0.0800 
 27 H        5.1010     2.7160    -0.6020 H     1 <1>   0.0800 
 28 H       -5.5130    -1.3150    -1.4940 H     1 <1>   0.1500 
 29 H       -4.6790     0.2210     2.4060 H     1 <1>   0.1500 
 30 H        5.7060     5.0210     1.2840 H     1 <1>   0.0800 
 31 H        6.7920     4.3730     0.0810 H     1 <1>   0.0800 
 32 H        6.3310     3.3940     1.4510 H     1 <1>   0.0800 
 33 H       -7.6530    -2.2160    -0.6770 H     1 <1>   0.1500 
 34 H       -6.8260    -0.6960     3.2170 H     1 <1>   0.1500 
@<TRIPOS>BOND
  1   1   2  1   
  2   1   3  1   
  3   2   4  1   
  4   2   5  2   
  5   3   6  1   
  6   3  21  1   
  7   3  22  1   
  8   4   7  1   
  9   5   8  1   
 10   6   9  2   
 11   6  10  am  
 12   7   8  2   
 13   7  11  1   
 14  10  12  1   
 15  10  23  1   
 16  11  13  1   
 17  11  24  1   
 18  11  25  1   
 19  12  14  ar  
 20  12  15  ar  
 21  13  16  1   
 22  13  26  1   
 23  13  27  1   
 24  14  17  ar  
 25  14  28  1   
 26  15  18  ar  
 27  15  29  1   
 28  16  30  1   
 29  16  31  1   
 30  16  32  1   
 31  17  19  ar  
 32  17  33  1   
 33  18  19  ar  
 34  18  34  1   
 35  19  20  1   
@<TRIPOS>SUBSTRUCTURE
  1 ****   1 GROUP 4 **** **** 0

# MOE 2024.06 (io_trps.svl 2023.06)
