@<TRIPOS>MOLECULE
10-[2-(3,4-Dimethoxy-phenyl)-ethyl]-9-methyl-11-oxo-8-oxa-10-aza-tricyclo[7.3.1.
54 57 1 0 0 
SMALL
USER_CHARGES


@<TRIPOS>ATOM
  1 O       -0.7900     2.7460    -0.3450 O.2   1 <1>  -0.5700 
  2 C       -1.9840     2.5770    -0.4530 C.2   1 <1>   0.5690 
  3 N       -2.4850     1.3060    -0.6040 N.am  1 <1>  -0.6600 
  4 C       -2.8870     3.7830    -0.5930 C.3   1 <1>  -0.1250 
  5 C       -3.8400     1.0480    -1.1640 C.3   1 <1>   0.5800 
  6 C       -1.7850     0.1780     0.0770 C.3   1 <1>   0.1400 
  7 C       -2.7090     4.7850     0.5160 C.2   1 <1>   0.9060 
  8 C       -4.3700     3.4210    -0.7780 C.3   1 <1>   0.0630 
  9 O       -4.6680     0.6320    -0.1000 O.3   1 <1>  -0.3630 
 10 C       -4.4410     2.3010    -1.8080 C.3   1 <1>  -0.1600 
 11 C       -3.8060    -0.0900    -2.1830 C.3   1 <1>  -0.2400 
 12 C       -0.6560    -0.3790    -0.7950 C.3   1 <1>  -0.0160 
 13 O       -2.3820     4.4500     1.6590 O.co2 1 <1>  -0.9000 
 14 O       -2.9850     5.9600     0.2410 O.co2 1 <1>  -0.9000 
 15 C       -5.0540     2.9250     0.4970 C.ar  1 <1>  -0.1440 
 16 C       -5.1670     1.5600     0.7550 C.ar  1 <1>   0.0820 
 17 C       -0.1880    -1.7250    -0.2630 C.ar  1 <1>  -0.1440 
 18 C       -5.5810     3.8260     1.4090 C.ar  1 <1>  -0.1500 
 19 C       -5.8080     1.1120     1.8980 C.ar  1 <1>  -0.1500 
 20 C        0.7520    -1.7870     0.7520 C.ar  1 <1>  -0.1500 
 21 C       -0.6980    -2.9020    -0.7820 C.ar  1 <1>  -0.1500 
 22 C       -6.2200     3.3770     2.5530 C.ar  1 <1>  -0.1500 
 23 C       -6.3370     2.0200     2.7970 C.ar  1 <1>  -0.1500 
 24 C        1.1920    -3.0030     1.2490 C.ar  1 <1>   0.0820 
 25 C       -0.2790    -4.1260    -0.2900 C.ar  1 <1>  -0.1500 
 26 O        2.1300    -2.9280     2.2350 O.3   1 <1>  -0.3630 
 27 C        0.6620    -4.1970     0.7350 C.ar  1 <1>   0.0820 
 28 C        3.2130    -3.8310     2.2490 C.3   1 <1>   0.0400 
 29 O        1.0600    -5.3950     1.2560 O.3   1 <1>  -0.3630 
 30 C        0.4140    -6.6050     0.9240 C.3   1 <1>   0.0400 
 31 H       -2.5620     4.2860    -1.4820 H     1 <1>   0.0800 
 32 H       -2.4880    -0.6010     0.3140 H     1 <1>   0.0800 
 33 H       -1.3720     0.5320     1.0070 H     1 <1>   0.0800 
 34 H       -4.8940     4.2890    -1.1430 H     1 <1>   0.0800 
 35 H       -5.4630     2.1140    -2.0840 H     1 <1>   0.0800 
 36 H       -3.8960     2.5670    -2.6960 H     1 <1>   0.0800 
 37 H       -3.1250     0.1530    -2.9780 H     1 <1>   0.0800 
 38 H       -4.7840    -0.2280    -2.6050 H     1 <1>   0.0800 
 39 H       -3.5020    -1.0100    -1.7220 H     1 <1>   0.0800 
 40 H        0.1650     0.3160    -0.7970 H     1 <1>   0.0800 
 41 H       -0.9930    -0.4940    -1.8080 H     1 <1>   0.0800 
 42 H       -5.4730     4.8850     1.2380 H     1 <1>   0.1500 
 43 H       -5.8840     0.0560     2.0770 H     1 <1>   0.1500 
 44 H        1.1570    -0.8810     1.1690 H     1 <1>   0.1500 
 45 H       -1.4270    -2.8710    -1.5720 H     1 <1>   0.1500 
 46 H       -6.6120     4.0920     3.2540 H     1 <1>   0.1500 
 47 H       -6.8310     1.6740     3.6880 H     1 <1>   0.1500 
 48 H       -0.7030    -5.0110    -0.7220 H     1 <1>   0.1500 
 49 H        4.0200    -3.3760     2.7930 H     1 <1>   0.0800 
 50 H        3.5160    -4.0350     1.2380 H     1 <1>   0.0800 
 51 H        2.9040    -4.7330     2.7440 H     1 <1>   0.0800 
 52 H        0.8480    -7.3880     1.5190 H     1 <1>   0.0800 
 53 H        0.5710    -6.8110    -0.1190 H     1 <1>   0.0800 
 54 H       -0.6340    -6.5140     1.1490 H     1 <1>   0.0800 
@<TRIPOS>BOND
  1   1   2  2   
  2   2   3  am  
  3   2   4  1   
  4   3   5  1   
  5   3   6  1   
  6   4   7  1   
  7   4   8  1   
  8   4  31  1   
  9   5   9  1   
 10   5  10  1   
 11   5  11  1   
 12   6  12  1   
 13   6  32  1   
 14   6  33  1   
 15   7  13  ar  
 16   7  14  ar  
 17   8  10  1   
 18   8  15  1   
 19   8  34  1   
 20   9  16  1   
 21  10  35  1   
 22  10  36  1   
 23  11  37  1   
 24  11  38  1   
 25  11  39  1   
 26  12  17  1   
 27  12  40  1   
 28  12  41  1   
 29  15  16  ar  
 30  15  18  ar  
 31  16  19  ar  
 32  17  20  ar  
 33  17  21  ar  
 34  18  22  ar  
 35  18  42  1   
 36  19  23  ar  
 37  19  43  1   
 38  20  24  ar  
 39  20  44  1   
 40  21  25  ar  
 41  21  45  1   
 42  22  23  ar  
 43  22  46  1   
 44  23  47  1   
 45  24  26  1   
 46  24  27  ar  
 47  25  27  ar  
 48  25  48  1   
 49  26  28  1   
 50  27  29  1   
 51  28  49  1   
 52  28  50  1   
 53  28  51  1   
 54  29  30  1   
 55  30  52  1   
 56  30  53  1   
 57  30  54  1   
@<TRIPOS>SUBSTRUCTURE
  1 ****   6 GROUP 4 **** **** 0

# MOE 2024.06 (io_trps.svl 2023.06)
