@<TRIPOS>MOLECULE
(7-Methoxy-2-methyl-thiazolo[5,4-b]indol-4-yl)-acetic acid ethyl ester
37 39 1 0 0 
SMALL
USER_CHARGES


@<TRIPOS>ATOM
  1 S       -0.4520    -0.1570     0.0030 S.3   1 <1>  -0.0800 
  2 C       -2.0960     0.2420    -0.3960 C.2   1 <1>  -0.1120 
  3 C       -0.2480     1.5230     0.5330 C.2   1 <1>   0.1980 
  4 N       -3.1710    -0.4080    -0.9080 N.pl3 1 <1>   0.0480 
  5 C       -2.3350     1.5320    -0.1140 C.2   1 <1>   0.2270 
  6 N       -1.2810     2.2630     0.4150 N.2   1 <1>  -0.5650 
  7 C        1.1130     1.9050     1.0650 C.3   1 <1>  -0.0600 
  8 C       -4.1800     0.5460    -0.9570 C.ar  1 <1>  -0.1520 
  9 C       -3.2250    -1.8120    -1.3510 C.3   1 <1>   0.1570 
 10 C       -3.6850     1.7640    -0.4690 C.ar  1 <1>   0.0000 
 11 C       -5.5060     0.4490    -1.3870 C.ar  1 <1>  -0.1500 
 12 C       -3.8360    -2.6800    -0.2760 C.2   1 <1>   0.6590 
 13 C       -4.5120     2.8880    -0.4140 C.ar  1 <1>  -0.1500 
 14 C       -6.3090     1.5650    -1.3270 C.ar  1 <1>  -0.1500 
 15 O       -3.1750    -3.4630     0.3560 O.2   1 <1>  -0.5700 
 16 O       -5.1420    -2.5430    -0.0870 O.3   1 <1>  -0.4300 
 17 C       -5.8220     2.7860    -0.8450 C.ar  1 <1>   0.0830 
 18 C       -5.8250    -3.2560     0.9160 C.3   1 <1>   0.1200 
 19 O       -6.7090     3.8190    -0.8340 O.3   1 <1>  -0.3630 
 20 C       -7.2810    -2.8040     0.9020 C.3   1 <1>  -0.2400 
 21 C       -6.3190     5.0880    -0.3580 C.3   1 <1>   0.0400 
 22 H        1.8560     1.7540     0.3050 H     1 <1>   0.0800 
 23 H        1.3510     1.3040     1.9220 H     1 <1>   0.0800 
 24 H        1.1110     2.9410     1.3530 H     1 <1>   0.0800 
 25 H       -2.2280    -2.1530    -1.5570 H     1 <1>   0.0800 
 26 H       -3.8120    -1.8790    -2.2460 H     1 <1>   0.0800 
 27 H       -5.8940    -0.4840    -1.7540 H     1 <1>   0.1500 
 28 H       -4.0880     3.7980    -0.0350 H     1 <1>   0.1500 
 29 H       -7.3330     1.5200    -1.6510 H     1 <1>   0.1500 
 30 H       -5.3620    -3.0380     1.8640 H     1 <1>   0.0800 
 31 H       -5.7410    -4.3090     0.7050 H     1 <1>   0.0800 
 32 H       -7.3420    -1.7470     1.0970 H     1 <1>   0.0800 
 33 H       -7.8300    -3.3240     1.6650 H     1 <1>   0.0800 
 34 H       -7.7290    -3.0210    -0.0510 H     1 <1>   0.0800 
 35 H       -7.1640     5.7470    -0.4320 H     1 <1>   0.0800 
 36 H       -5.5120     5.4560    -0.9670 H     1 <1>   0.0800 
 37 H       -6.0150     4.9970     0.6700 H     1 <1>   0.0800 
@<TRIPOS>BOND
  1   1   2  1   
  2   1   3  1   
  3   2   4  1   
  4   2   5  2   
  5   3   6  2   
  6   3   7  1   
  7   4   8  1   
  8   4   9  1   
  9   5   6  1   
 10   5  10  1   
 11   7  22  1   
 12   7  23  1   
 13   7  24  1   
 14   8  10  ar  
 15   8  11  ar  
 16   9  12  1   
 17   9  25  1   
 18   9  26  1   
 19  10  13  ar  
 20  11  14  ar  
 21  11  27  1   
 22  12  15  2   
 23  12  16  1   
 24  13  17  ar  
 25  13  28  1   
 26  14  17  ar  
 27  14  29  1   
 28  16  18  1   
 29  17  19  1   
 30  18  20  1   
 31  18  30  1   
 32  18  31  1   
 33  19  21  1   
 34  20  32  1   
 35  20  33  1   
 36  20  34  1   
 37  21  35  1   
 38  21  36  1   
 39  21  37  1   
@<TRIPOS>SUBSTRUCTURE
  1 ****   8 GROUP 4 **** **** 0

# MOE 2024.06 (io_trps.svl 2023.06)
