@<TRIPOS>MOLECULE
3-Cyclopentyl-N-(3-p-tolyl-[1,2,4]oxadiazol-5-ylmethyl)-propionamide
46 48 1 0 0 
SMALL
USER_CHARGES


@<TRIPOS>ATOM
  1 O       -0.8500     1.8000     3.5910 O.2   1 <1>  -0.5700 
  2 C       -0.7920     2.5370     2.6410 C.2   1 <1>   0.5690 
  3 N       -1.9050     3.2030     2.2560 N.am  1 <1>  -0.7300 
  4 C        0.5430     2.6940     1.9280 C.3   1 <1>  -0.0990 
  5 C       -2.1730     3.9970     1.0260 C.3   1 <1>   0.3200 
  6 C        0.9320     1.5140     1.0150 C.3   1 <1>  -0.1600 
  7 C       -3.2610     3.3610     0.1700 C.2   1 <1>   0.2980 
  8 C       -0.0600     1.2220    -0.1280 C.3   1 <1>  -0.0800 
  9 O       -3.2030     3.5420    -1.1220 O.3   1 <1>  -0.0190 
 10 N       -4.2370     2.6570     0.5780 N.2   1 <1>  -0.5650 
 11 C       -1.2500     0.3470     0.2730 C.3   1 <1>  -0.1600 
 12 C        0.5780     0.4150    -1.2560 C.3   1 <1>  -0.1600 
 13 N       -4.2230     2.8890    -1.5790 N.2   1 <1>  -0.4100 
 14 C       -4.8360     2.3570    -0.5800 C.2   1 <1>   0.4620 
 15 C       -1.7730    -0.2320    -1.0410 C.3   1 <1>  -0.1600 
 16 C       -0.5980    -0.1910    -2.0240 C.3   1 <1>  -0.1600 
 17 C       -6.0260     1.5260    -0.6570 C.ar  1 <1>   0.0540 
 18 C       -6.5740     0.9180     0.4740 C.ar  1 <1>  -0.1500 
 19 C       -6.6720     1.2980    -1.8730 C.ar  1 <1>  -0.1500 
 20 C       -7.7050     0.1270     0.3960 C.ar  1 <1>  -0.1500 
 21 C       -7.8040     0.5080    -1.9560 C.ar  1 <1>  -0.1500 
 22 C       -8.3280    -0.0850    -0.8210 C.ar  1 <1>  -0.1430 
 23 C       -9.5720    -0.9510    -0.9100 C.3   1 <1>  -0.0970 
 24 H       -2.7560     2.9260     2.7550 H     1 <1>   0.3700 
 25 H        1.2950     2.7830     2.6910 H     1 <1>   0.0800 
 26 H        0.5680     3.6090     1.3710 H     1 <1>   0.0800 
 27 H       -1.2820     4.0870     0.4340 H     1 <1>   0.0800 
 28 H       -2.4880     4.9850     1.3080 H     1 <1>   0.0800 
 29 H        1.0590     0.6290     1.6160 H     1 <1>   0.0800 
 30 H        1.8920     1.7420     0.5850 H     1 <1>   0.0800 
 31 H       -0.4210     2.1430    -0.5520 H     1 <1>   0.0800 
 32 H       -2.0180     0.8850     0.7950 H     1 <1>   0.0800 
 33 H       -0.9120    -0.4600     0.9000 H     1 <1>   0.0800 
 34 H        1.1730    -0.3810    -0.8400 H     1 <1>   0.0800 
 35 H        1.1990     1.0240    -1.8890 H     1 <1>   0.0800 
 36 H       -2.5770     0.3780    -1.4150 H     1 <1>   0.0800 
 37 H       -2.1370    -1.2360    -0.9000 H     1 <1>   0.0800 
 38 H       -0.3540    -1.1740    -2.3880 H     1 <1>   0.0800 
 39 H       -0.8530     0.4380    -2.8600 H     1 <1>   0.0800 
 40 H       -6.1060     1.0650     1.4320 H     1 <1>   0.1500 
 41 H       -6.2830     1.7480    -2.7690 H     1 <1>   0.1500 
 42 H       -8.0990    -0.3250     1.2900 H     1 <1>   0.1500 
 43 H       -8.2760     0.3560    -2.9110 H     1 <1>   0.1500 
 44 H       -9.5590    -1.7070    -0.1450 H     1 <1>   0.0800 
 45 H       -9.6230    -1.4390    -1.8670 H     1 <1>   0.0800 
 46 H      -10.4490    -0.3430    -0.7820 H     1 <1>   0.0800 
@<TRIPOS>BOND
  1   1   2  2   
  2   2   3  am  
  3   2   4  1   
  4   3   5  1   
  5   3  24  1   
  6   4   6  1   
  7   4  25  1   
  8   4  26  1   
  9   5   7  1   
 10   5  27  1   
 11   5  28  1   
 12   6   8  1   
 13   6  29  1   
 14   6  30  1   
 15   7   9  1   
 16   7  10  2   
 17   8  11  1   
 18   8  12  1   
 19   8  31  1   
 20   9  13  1   
 21  10  14  1   
 22  11  15  1   
 23  11  32  1   
 24  11  33  1   
 25  12  16  1   
 26  12  34  1   
 27  12  35  1   
 28  13  14  2   
 29  14  17  1   
 30  15  16  1   
 31  15  36  1   
 32  15  37  1   
 33  16  38  1   
 34  16  39  1   
 35  17  18  ar  
 36  17  19  ar  
 37  18  20  ar  
 38  18  40  1   
 39  19  21  ar  
 40  19  41  1   
 41  20  22  ar  
 42  20  42  1   
 43  21  22  ar  
 44  21  43  1   
 45  22  23  1   
 46  23  44  1   
 47  23  45  1   
 48  23  46  1   
@<TRIPOS>SUBSTRUCTURE
  1 ****  10 GROUP 4 **** **** 0

# MOE 2024.06 (io_trps.svl 2023.06)
