@<TRIPOS>MOLECULE
1-[3-(4-Chloro-phenyl)-[1,2,4]oxadiazol-5-ylmethyl]-1-cyclohexyl-3-propyl-urea
51 53 1 0 0 
SMALL
USER_CHARGES


@<TRIPOS>ATOM
  1 CL      -0.8920     2.6710    -0.4830 Cl    1 <1>  -0.1770 
  2 C       -2.4870     1.9680    -0.4490 C.ar  1 <1>   0.1770 
  3 C       -2.9200     1.2080    -1.5170 C.ar  1 <1>  -0.1500 
  4 C       -3.3010     2.1800     0.6470 C.ar  1 <1>  -0.1500 
  5 C       -4.1880     0.6540    -1.4840 C.ar  1 <1>  -0.1500 
  6 C       -4.5670     1.6200     0.6680 C.ar  1 <1>  -0.1500 
  7 C       -5.0430     0.8440    -0.3940 C.ar  1 <1>   0.0540 
  8 C       -6.3740     0.2600    -0.3740 C.2   1 <1>   0.4620 
  9 N       -6.8930    -0.4550    -1.3090 N.2   1 <1>  -0.4100 
 10 N       -7.2180     0.4210     0.6500 N.2   1 <1>  -0.5650 
 11 O       -8.0910    -0.7870    -0.9400 O.3   1 <1>  -0.0190 
 12 C       -8.2270    -0.2320     0.2350 C.2   1 <1>   0.2980 
 13 C       -9.5500    -0.3980     0.9690 C.3   1 <1>   0.3200 
 14 N      -10.6480     0.3810     0.3100 N.am  1 <1>  -0.6600 
 15 C      -11.7170    -0.2980    -0.2170 C.2   1 <1>   0.6900 
 16 C      -10.4230     1.8590     0.2970 C.3   1 <1>   0.2200 
 17 O      -11.8600    -1.4860     0.0010 O.2   1 <1>  -0.5700 
 18 N      -12.6210     0.3460    -0.9920 N.am  1 <1>  -0.7300 
 19 C      -11.5740     2.6260     0.9680 C.3   1 <1>  -0.1600 
 20 C      -10.1160     2.3760    -1.1170 C.3   1 <1>  -0.1600 
 21 C      -13.8280    -0.2460    -1.5980 C.3   1 <1>   0.1400 
 22 C      -11.2910     4.1360     0.9730 C.3   1 <1>  -0.1600 
 23 C       -9.8470     3.8870    -1.0990 C.3   1 <1>  -0.1600 
 24 C      -15.0110     0.6910    -1.3570 C.3   1 <1>  -0.1600 
 25 C      -11.0060     4.6530    -0.4440 C.3   1 <1>  -0.1600 
 26 C      -16.3000     0.1290    -1.9690 C.3   1 <1>  -0.2400 
 27 H       -2.2710     1.0550    -2.3610 H     1 <1>   0.1500 
 28 H       -2.9460     2.7750     1.4690 H     1 <1>   0.1500 
 29 H       -4.5210     0.0620    -2.3200 H     1 <1>   0.1500 
 30 H       -5.1970     1.7880     1.5250 H     1 <1>   0.1500 
 31 H       -9.4360    -0.0480     1.9790 H     1 <1>   0.0800 
 32 H       -9.7790    -1.4470     1.0170 H     1 <1>   0.0800 
 33 H       -9.5480     2.0650     0.8910 H     1 <1>   0.0800 
 34 H      -12.4460     1.3280    -1.1840 H     1 <1>   0.3700 
 35 H      -11.6870     2.2820     1.9810 H     1 <1>   0.0800 
 36 H      -12.5010     2.4610     0.4540 H     1 <1>   0.0800 
 37 H      -10.9360     2.1850    -1.7820 H     1 <1>   0.0800 
 38 H       -9.2480     1.8710    -1.5040 H     1 <1>   0.0800 
 39 H      -14.0250    -1.2100    -1.1600 H     1 <1>   0.0800 
 40 H      -13.6640    -0.3780    -2.6540 H     1 <1>   0.0800 
 41 H      -10.4420     4.3390     1.6030 H     1 <1>   0.0800 
 42 H      -12.1370     4.6590     1.3850 H     1 <1>   0.0800 
 43 H       -9.7040     4.2400    -2.1060 H     1 <1>   0.0800 
 44 H       -8.9390     4.0810    -0.5520 H     1 <1>   0.0800 
 45 H      -14.8050     1.6520    -1.7940 H     1 <1>   0.0800 
 46 H      -15.1510     0.8150    -0.2970 H     1 <1>   0.0800 
 47 H      -10.7640     5.7010    -0.4010 H     1 <1>   0.0800 
 48 H      -11.8910     4.5460    -1.0480 H     1 <1>   0.0800 
 49 H      -16.1910     0.0080    -3.0330 H     1 <1>   0.0800 
 50 H      -17.1190     0.8020    -1.7830 H     1 <1>   0.0800 
 51 H      -16.5370    -0.8260    -1.5330 H     1 <1>   0.0800 
@<TRIPOS>BOND
  1   1   2  1   
  2   2   3  ar  
  3   2   4  ar  
  4   3   5  ar  
  5   3  27  1   
  6   4   6  ar  
  7   4  28  1   
  8   5   7  ar  
  9   5  29  1   
 10   6   7  ar  
 11   6  30  1   
 12   7   8  1   
 13   8   9  2   
 14   8  10  1   
 15   9  11  1   
 16  10  12  2   
 17  11  12  1   
 18  12  13  1   
 19  13  14  1   
 20  13  31  1   
 21  13  32  1   
 22  14  15  am  
 23  14  16  1   
 24  15  17  2   
 25  15  18  am  
 26  16  19  1   
 27  16  20  1   
 28  16  33  1   
 29  18  21  1   
 30  18  34  1   
 31  19  22  1   
 32  19  35  1   
 33  19  36  1   
 34  20  23  1   
 35  20  37  1   
 36  20  38  1   
 37  21  24  1   
 38  21  39  1   
 39  21  40  1   
 40  22  25  1   
 41  22  41  1   
 42  22  42  1   
 43  23  25  1   
 44  23  43  1   
 45  23  44  1   
 46  24  26  1   
 47  24  45  1   
 48  24  46  1   
 49  25  47  1   
 50  25  48  1   
 51  26  49  1   
 52  26  50  1   
 53  26  51  1   
@<TRIPOS>SUBSTRUCTURE
  1 ****  12 GROUP 4 **** **** 0

# MOE 2024.06 (io_trps.svl 2023.06)
