@<TRIPOS>MOLECULE
8-(2,5-Dimethoxy-phenyl)-1-methyl-3-(4-methyl-benzyl)-7,8-dihydro-1H,6H-imidazo[
59 63 1 0 0 
SMALL
USER_CHARGES


@<TRIPOS>ATOM
  1 O       -0.3260    -0.5200    -1.9880 O.2   1 <1>  -0.5740 
  2 C        0.8010    -0.1300    -1.7580 C.2   1 <1>   0.6870 
  3 N        1.0730     1.2310    -1.7170 N.am  1 <1>  -0.4250 
  4 N        1.8170    -1.0510    -1.5390 N.am  1 <1>  -0.4410 
  5 C        2.3620     1.7050    -1.5500 C.2   1 <1>   0.7000 
  6 C       -0.0520     2.1790    -1.5170 C.3   1 <1>   0.2780 
  7 C        3.0820    -0.5690    -1.2640 C.2   1 <1>   0.4210 
  8 C        1.5370    -2.5170    -1.5530 C.3   1 <1>   0.0530 
  9 O        2.6180     2.8950    -1.6450 O.2   1 <1>  -0.5740 
 10 C        3.3870     0.7510    -1.2670 C.2   1 <1>   0.2720 
 11 C       -0.2520     2.3520    -0.0200 C.ar  1 <1>  -0.1500 
 12 N        4.2050    -1.2780    -0.9360 N.pl3 1 <1>  -0.7030 
 13 N        4.7430     0.8230    -0.9360 N.pl3 1 <1>  -0.7670 
 14 C       -1.0230     1.4460     0.6910 C.ar  1 <1>  -0.1560 
 15 C        0.3500     3.4040     0.6540 C.ar  1 <1>  -0.1560 
 16 C        5.1750    -0.3970    -0.7290 C.cat 1 <1>   1.0690 
 17 C        5.7700     1.8340    -0.6440 C.3   1 <1>   0.3490 
 18 C       -1.1820     1.5840     2.0580 C.ar  1 <1>  -0.1560 
 19 C        0.1900     3.5410     2.0210 C.ar  1 <1>  -0.1560 
 20 N        6.4550    -0.4590    -0.3510 N.pl3 1 <1>  -0.5790 
 21 C        6.9730     0.9440    -0.2440 C.3   1 <1>   0.1620 
 22 C       -0.5740     2.6300     2.7310 C.ar  1 <1>  -0.1500 
 23 C        7.2040    -1.5900     0.0430 C.ar  1 <1>   0.3060 
 24 C       -0.7470     2.7880     4.2310 C.3   1 <1>  -0.1030 
 25 C        6.6790    -2.5720     0.8990 C.ar  1 <1>   0.0760 
 26 C        8.5010    -1.7320    -0.4330 C.ar  1 <1>  -0.1560 
 27 O        5.4030    -2.4180     1.3690 O.3   1 <1>  -0.3670 
 28 C        7.4560    -3.6690     1.2540 C.ar  1 <1>  -0.1560 
 29 C        9.2740    -2.8280    -0.0720 C.ar  1 <1>   0.0760 
 30 C        4.9930    -3.0730     2.5550 C.3   1 <1>   0.0330 
 31 C        8.7450    -3.7900     0.7690 C.ar  1 <1>  -0.1560 
 32 O       10.5450    -3.0320    -0.4990 O.3   1 <1>  -0.3670 
 33 C       11.1850    -2.1390    -1.3850 C.3   1 <1>   0.0330 
 34 H       -0.9540     1.8050    -1.9700 H     1 <1>   0.0730 
 35 H        0.1730     3.1270    -1.9760 H     1 <1>   0.0730 
 36 H        0.6970    -2.7320    -2.1930 H     1 <1>   0.0730 
 37 H        1.3050    -2.8510    -0.5570 H     1 <1>   0.0730 
 38 H        2.3880    -3.0600    -1.9250 H     1 <1>   0.0730 
 39 H        4.3030    -2.2650    -0.7040 H     1 <1>   0.4460 
 40 H       -1.5050     0.6260     0.1850 H     1 <1>   0.1440 
 41 H        0.9480     4.1230     0.1200 H     1 <1>   0.1440 
 42 H        5.4630     2.4720     0.1680 H     1 <1>   0.0730 
 43 H        5.9870     2.4270    -1.5170 H     1 <1>   0.0730 
 44 H       -1.7850     0.8730     2.5960 H     1 <1>   0.1440 
 45 H        0.6600     4.3620     2.5320 H     1 <1>   0.1440 
 46 H        7.2850     1.1540     0.7650 H     1 <1>   0.0730 
 47 H        7.7980     1.1000    -0.9170 H     1 <1>   0.0730 
 48 H        0.1780     3.1010     4.6820 H     1 <1>   0.0730 
 49 H       -1.0470     1.8580     4.6800 H     1 <1>   0.0730 
 50 H       -1.5000     3.5290     4.4320 H     1 <1>   0.0730 
 51 H        8.9000    -0.9870    -1.0910 H     1 <1>   0.1440 
 52 H        7.0860    -4.4430     1.9010 H     1 <1>   0.1440 
 53 H        4.0370    -2.6770     2.8470 H     1 <1>   0.0730 
 54 H        5.7150    -2.8820     3.3310 H     1 <1>   0.0730 
 55 H        4.9060    -4.1280     2.3660 H     1 <1>   0.0730 
 56 H        9.3520    -4.6360     1.0420 H     1 <1>   0.1440 
 57 H       12.1720    -2.5190    -1.5830 H     1 <1>   0.0730 
 58 H       11.2560    -1.1730    -0.9180 H     1 <1>   0.0730 
 59 H       10.6240    -2.0910    -2.3010 H     1 <1>   0.0730 
@<TRIPOS>BOND
  1   1   2  2   
  2   2   3  am  
  3   2   4  am  
  4   3   5  am  
  5   3   6  1   
  6   4   7  1   
  7   4   8  1   
  8   5   9  2   
  9   5  10  1   
 10   6  11  1   
 11   6  34  1   
 12   6  35  1   
 13   7  10  2   
 14   7  12  1   
 15   8  36  1   
 16   8  37  1   
 17   8  38  1   
 18  10  13  1   
 19  11  14  ar  
 20  11  15  ar  
 21  12  16  ar  
 22  12  39  1   
 23  13  16  ar  
 24  13  17  1   
 25  14  18  ar  
 26  14  40  1   
 27  15  19  ar  
 28  15  41  1   
 29  16  20  ar  
 30  17  21  1   
 31  17  42  1   
 32  17  43  1   
 33  18  22  ar  
 34  18  44  1   
 35  19  22  ar  
 36  19  45  1   
 37  20  21  1   
 38  20  23  1   
 39  21  46  1   
 40  21  47  1   
 41  22  24  1   
 42  23  25  ar  
 43  23  26  ar  
 44  24  48  1   
 45  24  49  1   
 46  24  50  1   
 47  25  27  1   
 48  25  28  ar  
 49  26  29  ar  
 50  26  51  1   
 51  27  30  1   
 52  28  31  ar  
 53  28  52  1   
 54  29  31  ar  
 55  29  32  1   
 56  30  53  1   
 57  30  54  1   
 58  30  55  1   
 59  31  56  1   
 60  32  33  1   
 61  33  57  1   
 62  33  58  1   
 63  33  59  1   
@<TRIPOS>SUBSTRUCTURE
  1 ****   7 GROUP 4 **** **** 0

# MOE 2024.06 (io_trps.svl 2023.06)
