@<TRIPOS>MOLECULE
1,3-Dimethyl-7-o-tolyloxymethyl-6,7-dihydro-1H-oxazolo[2,3-f]purine-2,4-dione
43 46 1 0 0 
SMALL
USER_CHARGES


@<TRIPOS>ATOM
  1 O        0.8740     0.5810     0.9920 O.2   1 <1>  -0.5700 
  2 C        1.8380     1.1910     0.5610 C.2   1 <1>   0.6900 
  3 N        1.8590     2.5810     0.6410 N.am  1 <1>  -0.4200 
  4 N        2.8990     0.5020    -0.0050 N.am  1 <1>  -0.4230 
  5 C        2.9230     3.3010     0.1290 C.2   1 <1>   0.7150 
  6 C        0.7000     3.2910     1.2570 C.3   1 <1>   0.0600 
  7 C        3.9760     1.2190    -0.5120 C.2   1 <1>   0.2900 
  8 C        2.9260    -0.9810    -0.1150 C.3   1 <1>   0.0600 
  9 O        2.9530     4.5200     0.1720 O.2   1 <1>  -0.5700 
 10 C        3.9820     2.5710    -0.4480 C.2   1 <1>  -0.2370 
 11 N        5.0820     0.7170    -1.0920 N.2   1 <1>  -0.5650 
 12 N        5.1490     2.9410    -1.0210 N.pl3 1 <1>   0.0480 
 13 C        5.7330     1.8040    -1.3680 C.2   1 <1>   0.2490 
 14 C        5.9790     4.0770    -1.3690 C.3   1 <1>   0.0960 
 15 O        6.9270     1.9790    -1.9360 O.3   1 <1>  -0.3430 
 16 C        7.2590     3.3660    -1.8670 C.3   1 <1>   0.2000 
 17 C        8.4310     3.5520    -0.8950 C.3   1 <1>   0.1200 
 18 O        9.5580     2.8510    -1.3700 O.3   1 <1>  -0.3630 
 19 C       10.4350     2.4510    -0.4260 C.ar  1 <1>   0.0820 
 20 C       10.2890     1.2140     0.1940 C.ar  1 <1>  -0.1440 
 21 C       11.4830     3.2930    -0.0900 C.ar  1 <1>  -0.1500 
 22 C       11.1990     0.8450     1.1720 C.ar  1 <1>  -0.1500 
 23 C        9.1570     0.2680    -0.1850 C.3   1 <1>  -0.0970 
 24 C       12.3870     2.9120     0.8860 C.ar  1 <1>  -0.1500 
 25 C       12.2420     1.6890     1.5190 C.ar  1 <1>  -0.1500 
 26 H        0.3750     2.7660     2.1390 H     1 <1>   0.0800 
 27 H       -0.1130     3.3260     0.5530 H     1 <1>   0.0800 
 28 H        0.9650     4.2940     1.5390 H     1 <1>   0.0800 
 29 H        2.0750    -1.4220     0.3730 H     1 <1>   0.0800 
 30 H        3.8250    -1.3560     0.3420 H     1 <1>   0.0800 
 31 H        2.9200    -1.2600    -1.1540 H     1 <1>   0.0800 
 32 H        6.1510     4.6990    -0.5100 H     1 <1>   0.0800 
 33 H        5.5120     4.6430    -2.1550 H     1 <1>   0.0800 
 34 H        7.5330     3.7040    -2.8510 H     1 <1>   0.0800 
 35 H        8.1690     3.1750     0.0780 H     1 <1>   0.0800 
 36 H        8.7030     4.5890    -0.8130 H     1 <1>   0.0800 
 37 H       11.5890     4.2360    -0.5920 H     1 <1>   0.1500 
 38 H       11.1030    -0.1050     1.6690 H     1 <1>   0.1500 
 39 H        8.2310     0.6110     0.2390 H     1 <1>   0.0800 
 40 H        9.3510    -0.7270     0.1700 H     1 <1>   0.0800 
 41 H        9.0500     0.2280    -1.2540 H     1 <1>   0.0800 
 42 H       13.2010     3.5630     1.1520 H     1 <1>   0.1500 
 43 H       12.9420     1.3910     2.2790 H     1 <1>   0.1500 
@<TRIPOS>BOND
  1   1   2  2   
  2   2   3  am  
  3   2   4  am  
  4   3   5  am  
  5   3   6  1   
  6   4   7  1   
  7   4   8  1   
  8   5   9  2   
  9   5  10  1   
 10   6  26  1   
 11   6  27  1   
 12   6  28  1   
 13   7  10  2   
 14   7  11  1   
 15   8  29  1   
 16   8  30  1   
 17   8  31  1   
 18  10  12  1   
 19  11  13  2   
 20  12  13  1   
 21  12  14  1   
 22  13  15  1   
 23  14  16  1   
 24  14  32  1   
 25  14  33  1   
 26  15  16  1   
 27  16  17  1   
 28  16  34  1   
 29  17  18  1   
 30  17  35  1   
 31  17  36  1   
 32  18  19  1   
 33  19  20  ar  
 34  19  21  ar  
 35  20  22  ar  
 36  20  23  1   
 37  21  24  ar  
 38  21  37  1   
 39  22  25  ar  
 40  22  38  1   
 41  23  39  1   
 42  23  40  1   
 43  23  41  1   
 44  24  25  ar  
 45  24  42  1   
 46  25  43  1   
@<TRIPOS>SUBSTRUCTURE
  1 ****  13 GROUP 4 **** **** 0

# MOE 2024.06 (io_trps.svl 2023.06)
