@<TRIPOS>MOLECULE
2-(5-Propyl-[1,3,4]oxadiazol-2-ylmethylsulfanyl)-benzooxazole
32 34 1 0 0 
SMALL
USER_CHARGES


@<TRIPOS>ATOM
  1 S       -0.1470     0.6410     0.6580 S.3   1 <1>  -0.2860 
  2 C        1.5620     0.9960     0.3040 C.2   1 <1>   0.5340 
  3 C       -0.3000    -1.1520     0.2340 C.3   1 <1>   0.2500 
  4 O        2.3100     0.0040    -0.1450 O.3   1 <1>  -0.2800 
  5 N        2.1200     2.1350     0.4500 N.2   1 <1>  -0.5650 
  6 C       -1.7220    -1.6140     0.4770 C.2   1 <1>   0.2980 
  7 C        3.4970     0.5550    -0.3120 C.ar  1 <1>   0.1400 
  8 C        3.3960     1.8790     0.0530 C.ar  1 <1>   0.2270 
  9 O       -2.7070    -1.0750    -0.1670 O.3   1 <1>  -0.2800 
 10 N       -2.1090    -2.5350     1.2740 N.2   1 <1>  -0.3380 
 11 C        4.6850    -0.0030    -0.7640 C.ar  1 <1>  -0.1500 
 12 C        4.5130     2.7030    -0.0270 C.ar  1 <1>  -0.1500 
 13 C       -3.7440    -1.7020     0.2830 C.2   1 <1>   0.2980 
 14 N       -3.4360    -2.5920     1.1470 N.2   1 <1>  -0.3380 
 15 C        5.7930     0.8200    -0.8410 C.ar  1 <1>  -0.1500 
 16 C        5.7060     2.1670    -0.4740 C.ar  1 <1>  -0.1500 
 17 C       -5.1290    -1.3480    -0.2250 C.3   1 <1>   0.0200 
 18 C       -5.5280     0.0810     0.1720 C.3   1 <1>  -0.1600 
 19 C       -6.9340     0.4340    -0.3260 C.3   1 <1>  -0.2400 
 20 H        0.3890    -1.6900     0.8600 H     1 <1>   0.0800 
 21 H       -0.0330    -1.2640    -0.8000 H     1 <1>   0.0800 
 22 H        4.7260    -1.0410    -1.0400 H     1 <1>   0.1500 
 23 H        4.4240     3.7350     0.2600 H     1 <1>   0.1500 
 24 H        6.7350     0.4270    -1.1870 H     1 <1>   0.1500 
 25 H        6.5830     2.7900    -0.5430 H     1 <1>   0.1500 
 26 H       -5.8350    -2.0480     0.1870 H     1 <1>   0.0800 
 27 H       -5.1390    -1.4500    -1.2940 H     1 <1>   0.0800 
 28 H       -4.8190     0.7790    -0.2410 H     1 <1>   0.0800 
 29 H       -5.4950     0.1730     1.2440 H     1 <1>   0.0800 
 30 H       -6.9830     0.3710    -1.3990 H     1 <1>   0.0800 
 31 H       -7.1850     1.4390    -0.0330 H     1 <1>   0.0800 
 32 H       -7.6630    -0.2350     0.0960 H     1 <1>   0.0800 
@<TRIPOS>BOND
  1   1   2  1   
  2   1   3  1   
  3   2   4  1   
  4   2   5  2   
  5   3   6  1   
  6   3  20  1   
  7   3  21  1   
  8   4   7  1   
  9   5   8  1   
 10   6   9  1   
 11   6  10  2   
 12   7   8  ar  
 13   7  11  ar  
 14   8  12  ar  
 15   9  13  1   
 16  10  14  1   
 17  11  15  ar  
 18  11  22  1   
 19  12  16  ar  
 20  12  23  1   
 21  13  14  2   
 22  13  17  1   
 23  15  16  ar  
 24  15  24  1   
 25  16  25  1   
 26  17  18  1   
 27  17  26  1   
 28  17  27  1   
 29  18  19  1   
 30  18  28  1   
 31  18  29  1   
 32  19  30  1   
 33  19  31  1   
 34  19  32  1   
@<TRIPOS>SUBSTRUCTURE
  1 ****   1 GROUP 4 **** **** 0

# MOE 2024.06 (io_trps.svl 2023.06)
