@<TRIPOS>MOLECULE
5-(4-Chloro-phenoxy)-pentanoic acid
27 27 1 0 0 
SMALL
USER_CHARGES


@<TRIPOS>ATOM
  1 CL      -0.0680     0.6970    -0.1760 Cl    1 <1>  -0.1770 
  2 C        1.5680     1.2990    -0.2660 C.ar  1 <1>   0.1770 
  3 C        2.5430     0.7370     0.5380 C.ar  1 <1>  -0.1500 
  4 C        1.8640     2.3290    -1.1410 C.ar  1 <1>  -0.1500 
  5 C        3.8420     1.2130     0.4680 C.ar  1 <1>  -0.1500 
  6 C        3.1640     2.8020    -1.2080 C.ar  1 <1>  -0.1500 
  7 C        4.1560     2.2500    -0.4100 C.ar  1 <1>   0.0820 
  8 O        5.3990     2.7730    -0.5440 O.3   1 <1>  -0.3630 
  9 C        6.4810     2.3130     0.2370 C.3   1 <1>   0.1200 
 10 C        7.7390     3.1090    -0.1190 C.3   1 <1>  -0.1600 
 11 C        7.6290     4.5900     0.2710 C.3   1 <1>  -0.1600 
 12 C        8.9410     5.3390    -0.0220 C.3   1 <1>  -0.2660 
 13 C        8.9030     6.7800     0.4340 C.2   1 <1>   0.9060 
 14 O        9.0850     7.0220     1.6320 O.co2 1 <1>  -0.9000 
 15 O        8.7060     7.6630    -0.4060 O.co2 1 <1>  -0.9000 
 16 H        2.2830    -0.0620     1.2090 H     1 <1>   0.1500 
 17 H        1.0900     2.7500    -1.7550 H     1 <1>   0.1500 
 18 H        4.5890     0.7690     1.0970 H     1 <1>   0.1500 
 19 H        3.4210     3.6030    -1.8780 H     1 <1>   0.1500 
 20 H        6.6290     1.2690     0.0230 H     1 <1>   0.0800 
 21 H        6.2340     2.4480     1.2760 H     1 <1>   0.0800 
 22 H        7.9320     3.0200    -1.1730 H     1 <1>   0.0800 
 23 H        8.5730     2.6770     0.4060 H     1 <1>   0.0800 
 24 H        7.4100     4.6780     1.3220 H     1 <1>   0.0800 
 25 H        6.8280     5.0610    -0.2740 H     1 <1>   0.0800 
 26 H        9.1440     5.3310    -1.0750 H     1 <1>   0.0800 
 27 H        9.7580     4.8670     0.4880 H     1 <1>   0.0800 
@<TRIPOS>BOND
  1   1   2  1   
  2   2   3  ar  
  3   2   4  ar  
  4   3   5  ar  
  5   3  16  1   
  6   4   6  ar  
  7   4  17  1   
  8   5   7  ar  
  9   5  18  1   
 10   6   7  ar  
 11   6  19  1   
 12   7   8  1   
 13   8   9  1   
 14   9  10  1   
 15   9  20  1   
 16   9  21  1   
 17  10  11  1   
 18  10  22  1   
 19  10  23  1   
 20  11  12  1   
 21  11  24  1   
 22  11  25  1   
 23  12  13  1   
 24  12  26  1   
 25  12  27  1   
 26  13  14  ar  
 27  13  15  ar  
@<TRIPOS>SUBSTRUCTURE
  1 ****   8 GROUP 4 **** **** 0

# MOE 2024.06 (io_trps.svl 2023.06)
