@<TRIPOS>MOLECULE
2-[4-Methyl-5-(5,6,7,8-tetrahydro-naphthalen-2-yloxymethyl)-4H-[1,2,4]triazol-3-
54 58 1 0 0 
SMALL
USER_CHARGES


@<TRIPOS>ATOM
  1 S       -0.2530     0.5460     0.2090 S.3   1 <1>  -0.2860 
  2 C       -1.0950     1.9730    -0.4910 C.2   1 <1>   0.2420 
  3 C        1.3390     0.4260    -0.7430 C.3   1 <1>   0.1310 
  4 N       -0.6190     2.6820    -1.4530 N.2   1 <1>  -0.3380 
  5 N       -2.2750     2.4040    -0.0440 N.pl3 1 <1>   0.0480 
  6 C        2.3610     1.4240    -0.2140 C.2   1 <1>   0.4390 
  7 N       -1.5100     3.6500    -1.6670 N.2   1 <1>  -0.3380 
  8 C       -2.4860     3.4690    -0.8360 C.2   1 <1>   0.0060 
  9 C       -3.1140     1.8410     1.0360 C.3   1 <1>   0.0160 
 10 N        2.0940     2.7490    -0.3810 N.pl3 1 <1>  -0.5500 
 11 N        3.4280     0.9930     0.3480 N.2   1 <1>  -0.6610 
 12 C       -3.7100     4.3690    -0.7690 C.3   1 <1>   0.3000 
 13 C        2.9440     3.7390     0.0630 C.ar  1 <1>   0.1000 
 14 C        4.3410     1.9090     0.8150 C.2   1 <1>   0.6950 
 15 O       -4.8780     3.5850    -0.6390 O.3   1 <1>  -0.3630 
 16 C        4.1200     3.3290     0.6910 C.ar  1 <1>   0.0860 
 17 C        2.6570     5.0910    -0.0990 C.ar  1 <1>  -0.1500 
 18 O        5.3510     1.4770     1.3400 O.2   1 <1>  -0.5700 
 19 C       -6.0920     4.1610    -0.4590 C.ar  1 <1>   0.0830 
 20 C        4.9980     4.3140     1.1540 C.ar  1 <1>  -0.1500 
 21 C        3.5370     6.0450     0.3650 C.ar  1 <1>  -0.1500 
 22 C       -7.1630     3.3070    -0.2570 C.ar  1 <1>  -0.1500 
 23 C       -6.3080     5.5350    -0.4630 C.ar  1 <1>  -0.1500 
 24 C        4.7130     5.6540     0.9940 C.ar  1 <1>  -0.1500 
 25 C       -8.4420     3.8000    -0.0530 C.ar  1 <1>  -0.1430 
 26 C       -7.5830     6.0310    -0.2590 C.ar  1 <1>  -0.1500 
 27 C       -8.6540     5.1750    -0.0520 C.ar  1 <1>  -0.1430 
 28 C       -9.5780     2.8100     0.1820 C.3   1 <1>  -0.0170 
 29 C      -10.0400     5.7760     0.1490 C.3   1 <1>  -0.0170 
 30 C      -10.9630     3.4410    -0.0010 C.3   1 <1>  -0.1600 
 31 C      -11.0410     4.7780     0.7420 C.3   1 <1>  -0.1600 
 32 H        1.1170     0.6060    -1.7790 H     1 <1>   0.0800 
 33 H        1.6990    -0.5780    -0.6180 H     1 <1>   0.0800 
 34 H       -2.5020     1.2990     1.7340 H     1 <1>   0.0800 
 35 H       -3.8430     1.1780     0.6070 H     1 <1>   0.0800 
 36 H       -3.6190     2.6350     1.5550 H     1 <1>   0.0800 
 37 H        1.2060     3.0130    -0.8350 H     1 <1>   0.4000 
 38 H       -3.7920     4.9500    -1.6710 H     1 <1>   0.0800 
 39 H       -3.6390     5.0200     0.0840 H     1 <1>   0.0800 
 40 H        1.7440     5.3850    -0.5880 H     1 <1>   0.1500 
 41 H        5.9090     4.0080     1.6420 H     1 <1>   0.1500 
 42 H        3.3200     7.0930     0.2420 H     1 <1>   0.1500 
 43 H       -6.9870     2.2480    -0.2600 H     1 <1>   0.1500 
 44 H       -5.5100     6.2340    -0.6240 H     1 <1>   0.1500 
 45 H        5.3980     6.4020     1.3560 H     1 <1>   0.1500 
 46 H       -7.7430     7.0950    -0.2660 H     1 <1>   0.1500 
 47 H       -9.4930     2.4350     1.1870 H     1 <1>   0.0800 
 48 H       -9.4790     1.9770    -0.4910 H     1 <1>   0.0800 
 49 H      -10.4030     6.1090    -0.8070 H     1 <1>   0.0800 
 50 H       -9.9750     6.6350     0.7950 H     1 <1>   0.0800 
 51 H      -11.7160     2.7680     0.3700 H     1 <1>   0.0800 
 52 H      -11.1450     3.6030    -1.0490 H     1 <1>   0.0800 
 53 H      -12.0360     5.1810     0.6720 H     1 <1>   0.0800 
 54 H      -10.8150     4.6220     1.7830 H     1 <1>   0.0800 
@<TRIPOS>BOND
  1   1   2  1   
  2   1   3  1   
  3   2   4  2   
  4   2   5  1   
  5   3   6  1   
  6   3  32  1   
  7   3  33  1   
  8   4   7  1   
  9   5   8  1   
 10   5   9  1   
 11   6  10  1   
 12   6  11  2   
 13   7   8  2   
 14   8  12  1   
 15   9  34  1   
 16   9  35  1   
 17   9  36  1   
 18  10  13  1   
 19  10  37  1   
 20  11  14  1   
 21  12  15  1   
 22  12  38  1   
 23  12  39  1   
 24  13  16  ar  
 25  13  17  ar  
 26  14  16  1   
 27  14  18  2   
 28  15  19  1   
 29  16  20  ar  
 30  17  21  ar  
 31  17  40  1   
 32  19  22  ar  
 33  19  23  ar  
 34  20  24  ar  
 35  20  41  1   
 36  21  24  ar  
 37  21  42  1   
 38  22  25  ar  
 39  22  43  1   
 40  23  26  ar  
 41  23  44  1   
 42  24  45  1   
 43  25  27  ar  
 44  25  28  1   
 45  26  27  ar  
 46  26  46  1   
 47  27  29  1   
 48  28  30  1   
 49  28  47  1   
 50  28  48  1   
 51  29  31  1   
 52  29  49  1   
 53  29  50  1   
 54  30  31  1   
 55  30  51  1   
 56  30  52  1   
 57  31  53  1   
 58  31  54  1   
@<TRIPOS>SUBSTRUCTURE
  1 ****   8 GROUP 4 **** **** 0

# MOE 2024.06 (io_trps.svl 2023.06)
