@<TRIPOS>MOLECULE
3-Oxo-3,4-dihydro-2H-benzo[1,4]oxazine-6-sulfonic acid cyclopropylamide
30 32 1 0 0 
SMALL
USER_CHARGES


@<TRIPOS>ATOM
  1 S       -0.0400    -0.2180     1.8530 S.o2  1 <1>   1.4470 
  2 O        0.8800    -1.2410     2.2970 O.2   1 <1>  -0.6500 
  3 O       -0.4470     0.8170     2.7740 O.2   1 <1>  -0.6500 
  4 N        0.7040     0.5950     0.5870 N.am  1 <1>  -0.7890 
  5 C       -1.5020    -0.9540     1.0720 C.ar  1 <1>  -0.0090 
  6 C        1.3260    -0.2510    -0.4010 C.3   1 <1>   0.1310 
  7 C       -2.5380    -0.1490     0.6110 C.ar  1 <1>  -0.1500 
  8 C       -1.6140    -2.3300     0.8970 C.ar  1 <1>  -0.1500 
  9 C        2.7390    -0.6770    -0.2130 C.3   1 <1>  -0.2000 
 10 C        2.3830     0.3460    -1.2600 C.3   1 <1>  -0.2000 
 11 C       -3.6550    -0.6880    -0.0060 C.ar  1 <1>   0.1170 
 12 C       -2.7230    -2.8870     0.2820 C.ar  1 <1>  -0.1500 
 13 N       -4.6880     0.1200    -0.4800 N.am  1 <1>  -0.5470 
 14 C       -3.7440    -2.0730    -0.1680 C.ar  1 <1>   0.0830 
 15 C       -5.8290    -0.3950    -0.9970 C.2   1 <1>   0.5690 
 16 O       -4.8150    -2.6520    -0.7780 O.3   1 <1>  -0.3630 
 17 O       -6.6820     0.3230    -1.4550 O.2   1 <1>  -0.5700 
 18 C       -6.0260    -1.9100    -0.9600 C.3   1 <1>   0.1810 
 19 H        1.4430     1.1250     1.0410 H     1 <1>   0.4200 
 20 H        0.6350    -0.9350    -0.8690 H     1 <1>   0.1000 
 21 H       -2.4660     0.9180     0.7370 H     1 <1>   0.1500 
 22 H       -0.8240    -2.9760     1.2460 H     1 <1>   0.1500 
 23 H        3.0250    -1.6630    -0.5360 H     1 <1>   0.1000 
 24 H        3.2610    -0.3680     0.6760 H     1 <1>   0.1000 
 25 H        2.6650     1.3720    -1.1050 H     1 <1>   0.1000 
 26 H        2.4400     0.0520    -2.2940 H     1 <1>   0.1000 
 27 H       -2.7990    -3.9530     0.1500 H     1 <1>   0.1500 
 28 H       -4.6020     1.1360    -0.4890 H     1 <1>   0.3700 
 29 H       -6.4730    -2.2360    -1.8800 H     1 <1>   0.0800 
 30 H       -6.6820    -2.1570    -0.1470 H     1 <1>   0.0800 
@<TRIPOS>BOND
  1   1   2  2   
  2   1   3  2   
  3   1   4  am  
  4   1   5  1   
  5   4   6  1   
  6   4  19  1   
  7   5   7  ar  
  8   5   8  ar  
  9   6   9  1   
 10   6  10  1   
 11   6  20  1   
 12   7  11  ar  
 13   7  21  1   
 14   8  12  ar  
 15   8  22  1   
 16   9  10  1   
 17   9  23  1   
 18   9  24  1   
 19  10  25  1   
 20  10  26  1   
 21  11  13  1   
 22  11  14  ar  
 23  12  14  ar  
 24  12  27  1   
 25  13  15  am  
 26  13  28  1   
 27  14  16  1   
 28  15  17  2   
 29  15  18  1   
 30  16  18  1   
 31  18  29  1   
 32  18  30  1   
@<TRIPOS>SUBSTRUCTURE
  1 ****   7 GROUP 4 **** **** 0

# MOE 2024.06 (io_trps.svl 2023.06)
