@<TRIPOS>MOLECULE
5-Ethyl-4-methyl-2H-pyrazole-3-carboxylic acid
20 20 1 0 0 
SMALL
USER_CHARGES


@<TRIPOS>ATOM
  1 O       -0.5110    -0.0680     0.5860 O.co2 1 <1>  -0.9000 
  2 C       -1.5710    -0.0190    -0.0750 C.2   1 <1>   1.0330 
  3 O       -1.8730    -1.0440    -0.7300 O.co2 1 <1>  -0.9000 
  4 C       -2.4640     1.1620    -0.0550 C.2   1 <1>   0.0560 
  5 N       -2.1020     2.4370    -0.1120 N.2   1 <1>  -0.7070 
  6 C       -3.8730     1.0830     0.0260 C.2   1 <1>  -0.1810 
  7 N       -3.2350     3.1340    -0.0750 N.pl3 1 <1>   0.3000 
  8 C       -4.3330     2.3580     0.0020 C.2   1 <1>  -0.3320 
  9 C       -4.6040    -0.2500     0.1150 C.3   1 <1>  -0.0590 
 10 C       -5.7000     3.0380     0.0300 C.3   1 <1>   0.0200 
 11 C       -6.9060     2.1010     0.0020 C.3   1 <1>  -0.2400 
 12 H       -3.2290     4.1570    -0.1060 H     1 <1>   0.2700 
 13 H       -4.0780    -0.9060     0.7850 H     1 <1>   0.0800 
 14 H       -4.6240    -0.7100    -0.8560 H     1 <1>   0.0800 
 15 H       -5.6030    -0.1480     0.4790 H     1 <1>   0.0800 
 16 H       -5.7670     3.6880    -0.8250 H     1 <1>   0.0800 
 17 H       -5.7630     3.6520     0.9120 H     1 <1>   0.0800 
 18 H       -6.8350     1.4300    -0.8350 H     1 <1>   0.0800 
 19 H       -7.8120     2.6730    -0.0920 H     1 <1>   0.0800 
 20 H       -6.9580     1.5380     0.9160 H     1 <1>   0.0800 
@<TRIPOS>BOND
  1   1   2  ar  
  2   2   3  ar  
  3   2   4  1   
  4   4   5  2   
  5   4   6  1   
  6   5   7  1   
  7   6   8  2   
  8   6   9  1   
  9   7   8  1   
 10   7  12  1   
 11   8  10  1   
 12   9  13  1   
 13   9  14  1   
 14   9  15  1   
 15  10  11  1   
 16  10  16  1   
 17  10  17  1   
 18  11  18  1   
 19  11  19  1   
 20  11  20  1   
@<TRIPOS>SUBSTRUCTURE
  1 ****   6 GROUP 4 **** **** 0

# MOE 2024.06 (io_trps.svl 2023.06)
