@<TRIPOS>MOLECULE
N-(5,6-Dimethyl-7-oxo-4,7-dihydro-[1,2,4]triazolo[1,5-a]pyrimidin-2-yl)-2,2-dime
36 37 1 0 0 
SMALL
USER_CHARGES


@<TRIPOS>ATOM
  1 O       -0.1730    -0.3630    -0.8710 O.2   1 <1>  -0.5700 
  2 C       -0.3050    -1.5290    -0.5170 C.2   1 <1>   0.5650 
  3 N       -1.5850    -2.1000    -0.3250 N.pl3 1 <1>   0.5610 
  4 C        0.8400    -2.3760    -0.2880 C.2   1 <1>  -0.1240 
  5 N       -2.8440    -1.6120    -0.4350 N.2   1 <1>  -0.7070 
  6 C       -1.7040    -3.3980     0.0380 C.2   1 <1>   0.2700 
  7 C        0.6780    -3.6880     0.0640 C.2   1 <1>  -0.0380 
  8 C        2.2130    -1.7180    -0.4600 C.3   1 <1>  -0.1020 
  9 C       -3.5690    -2.6290    -0.1280 C.2   1 <1>   0.5790 
 10 N       -2.9250    -3.7660     0.1660 N.2   1 <1>  -0.5650 
 11 N       -0.5900    -4.1920     0.2320 N.pl3 1 <1>  -0.5840 
 12 C        1.7810    -4.7080     0.3000 C.3   1 <1>  -0.1020 
 13 N       -4.9460    -2.6690    -0.0940 N.am  1 <1>  -0.4930 
 14 C       -5.8860    -1.6850    -0.1320 C.2   1 <1>   0.5690 
 15 O       -5.6090    -0.5090    -0.1680 O.2   1 <1>  -0.5700 
 16 C       -7.3850    -2.0880    -0.1150 C.3   1 <1>   0.0610 
 17 C       -8.0740    -1.5760    -1.3930 C.3   1 <1>  -0.2400 
 18 C       -7.6080    -3.6150    -0.0390 C.3   1 <1>  -0.2400 
 19 C       -8.0810    -1.4530     1.1040 C.3   1 <1>  -0.2400 
 20 H        2.2150    -0.7430    -0.0030 H     1 <1>   0.0800 
 21 H        2.4310    -1.5980    -1.5060 H     1 <1>   0.0800 
 22 H        3.0030    -2.2790    -0.0010 H     1 <1>   0.0800 
 23 H       -0.7620    -5.1660     0.5060 H     1 <1>   0.4000 
 24 H        1.5140    -5.6490    -0.1470 H     1 <1>   0.0800 
 25 H        1.9200    -4.8580     1.3560 H     1 <1>   0.0800 
 26 H        2.7160    -4.4070    -0.1330 H     1 <1>   0.0800 
 27 H       -5.2870    -3.6150     0.0140 H     1 <1>   0.3700 
 28 H       -7.9830    -0.5050    -1.4610 H     1 <1>   0.0800 
 29 H       -7.6110    -2.0040    -2.2650 H     1 <1>   0.0800 
 30 H       -9.1190    -1.8290    -1.3980 H     1 <1>   0.0800 
 31 H       -7.1730    -4.1080    -0.8910 H     1 <1>   0.0800 
 32 H       -8.6610    -3.8390    -0.0320 H     1 <1>   0.0800 
 33 H       -7.1790    -4.0210     0.8600 H     1 <1>   0.0800 
 34 H       -7.6220    -1.7910     2.0160 H     1 <1>   0.0800 
 35 H       -9.1260    -1.7080     1.1280 H     1 <1>   0.0800 
 36 H       -7.9950    -0.3810     1.0650 H     1 <1>   0.0800 
@<TRIPOS>BOND
  1   1   2  2   
  2   2   3  1   
  3   2   4  1   
  4   3   5  1   
  5   3   6  1   
  6   4   7  2   
  7   4   8  1   
  8   5   9  2   
  9   6  10  2   
 10   6  11  1   
 11   7  11  1   
 12   7  12  1   
 13   8  20  1   
 14   8  21  1   
 15   8  22  1   
 16   9  10  1   
 17   9  13  1   
 18  11  23  1   
 19  12  24  1   
 20  12  25  1   
 21  12  26  1   
 22  13  14  am  
 23  13  27  1   
 24  14  15  2   
 25  14  16  1   
 26  16  17  1   
 27  16  18  1   
 28  16  19  1   
 29  17  28  1   
 30  17  29  1   
 31  17  30  1   
 32  18  31  1   
 33  18  32  1   
 34  18  33  1   
 35  19  34  1   
 36  19  35  1   
 37  19  36  1   
@<TRIPOS>SUBSTRUCTURE
  1 ****   9 GROUP 4 **** **** 0

# MOE 2024.06 (io_trps.svl 2023.06)
