@<TRIPOS>MOLECULE
(3,4-Dihydro-1H-isoquinolin-2-yl)-[1-(2,5-dimethoxy-benzenesulfonyl)-pyrrolidin-
56 59 1 0 0 
SMALL
USER_CHARGES


@<TRIPOS>ATOM
  1 S        0.9870     0.4980    -1.3490 S.o2  1 <1>   1.4470 
  2 O        2.0210    -0.3170    -1.9550 O.2   1 <1>  -0.6500 
  3 O        0.5110     1.6320    -2.1110 O.2   1 <1>  -0.6500 
  4 N        1.6780     1.1090     0.0720 N.am  1 <1>  -0.8490 
  5 C       -0.3860    -0.5600    -0.8240 C.ar  1 <1>  -0.0090 
  6 C        2.5440     0.1690     0.7970 C.3   1 <1>   0.3370 
  7 C        2.4650     2.3090    -0.1390 C.3   1 <1>   0.1960 
  8 C       -1.4540    -0.0490    -0.0930 C.ar  1 <1>   0.0830 
  9 C       -0.3940    -1.9180    -1.1280 C.ar  1 <1>  -0.1500 
 10 C        1.8270    -1.0410     1.4640 C.2   1 <1>   0.5690 
 11 C        3.2530     1.0770     1.8020 C.3   1 <1>  -0.1600 
 12 C        3.3300     2.4410     1.1120 C.3   1 <1>  -0.1600 
 13 O       -1.5010     1.2670     0.2060 O.3   1 <1>  -0.3630 
 14 C       -2.4960    -0.8660     0.3210 C.ar  1 <1>  -0.1500 
 15 C       -1.4320    -2.7470    -0.7120 C.ar  1 <1>   0.0830 
 16 O        1.0030    -0.8000     2.3190 O.2   1 <1>  -0.5700 
 17 N        2.1030    -2.3470     1.1180 N.am  1 <1>  -0.6600 
 18 C       -1.3260     1.6160     1.5620 C.3   1 <1>   0.0400 
 19 C       -2.4810    -2.2130     0.0140 C.ar  1 <1>  -0.1500 
 20 O       -1.4860    -4.0790    -0.9700 O.3   1 <1>  -0.3630 
 21 C        3.1280    -2.7380     0.0910 C.3   1 <1>   0.2840 
 22 C        1.3130    -3.4500     1.7640 C.3   1 <1>   0.1400 
 23 C       -0.4900    -4.7160    -1.7410 C.3   1 <1>   0.0400 
 24 C        2.9880    -4.1710    -0.4090 C.ar  1 <1>  -0.1430 
 25 C        2.0900    -4.7660     1.8330 C.3   1 <1>  -0.0170 
 26 C        2.5120    -5.1630     0.4340 C.ar  1 <1>  -0.1430 
 27 C        3.3500    -4.4950    -1.7080 C.ar  1 <1>  -0.1500 
 28 C        2.4080    -6.4700    -0.0140 C.ar  1 <1>  -0.1500 
 29 C        3.2420    -5.8000    -2.1580 C.ar  1 <1>  -0.1500 
 30 C        2.7740    -6.7880    -1.3100 C.ar  1 <1>  -0.1500 
 31 H        3.3010    -0.1830     0.1220 H     1 <1>   0.0800 
 32 H        1.8220     3.1630    -0.2780 H     1 <1>   0.0800 
 33 H        3.0910     2.1900    -1.0090 H     1 <1>   0.0800 
 34 H        0.4280    -2.3190    -1.6890 H     1 <1>   0.1500 
 35 H        4.2230     0.6920     2.0610 H     1 <1>   0.0800 
 36 H        2.6610     1.1600     2.6970 H     1 <1>   0.0800 
 37 H        2.9390     3.2110     1.7530 H     1 <1>   0.0800 
 38 H        4.3400     2.6940     0.8390 H     1 <1>   0.0800 
 39 H       -3.3160    -0.4470     0.8740 H     1 <1>   0.1500 
 40 H       -1.3870     2.6860     1.6430 H     1 <1>   0.0800 
 41 H       -0.3580     1.2810     1.8860 H     1 <1>   0.0800 
 42 H       -2.0970     1.1560     2.1530 H     1 <1>   0.0800 
 43 H       -3.2820    -2.8560     0.3320 H     1 <1>   0.1500 
 44 H        4.1070    -2.6250     0.5230 H     1 <1>   0.0800 
 45 H        3.0610    -2.0870    -0.7570 H     1 <1>   0.0800 
 46 H        0.4120    -3.6030     1.1950 H     1 <1>   0.0800 
 47 H        1.0260    -3.1640     2.7610 H     1 <1>   0.0800 
 48 H       -0.7350    -5.7600    -1.8120 H     1 <1>   0.0800 
 49 H        0.4580    -4.6000    -1.2510 H     1 <1>   0.0800 
 50 H       -0.4700    -4.2760    -2.7220 H     1 <1>   0.0800 
 51 H        1.4590    -5.5230     2.2620 H     1 <1>   0.0800 
 52 H        2.9540    -4.6480     2.4620 H     1 <1>   0.0800 
 53 H        3.7180    -3.7350    -2.3760 H     1 <1>   0.1500 
 54 H        2.0420    -7.2420     0.6390 H     1 <1>   0.1500 
 55 H        3.5260    -6.0460    -3.1660 H     1 <1>   0.1500 
 56 H        2.6950    -7.8040    -1.6580 H     1 <1>   0.1500 
@<TRIPOS>BOND
  1   1   2  2   
  2   1   3  2   
  3   1   4  am  
  4   1   5  1   
  5   4   6  1   
  6   4   7  1   
  7   5   8  ar  
  8   5   9  ar  
  9   6  10  1   
 10   6  11  1   
 11   6  31  1   
 12   7  12  1   
 13   7  32  1   
 14   7  33  1   
 15   8  13  1   
 16   8  14  ar  
 17   9  15  ar  
 18   9  34  1   
 19  10  16  2   
 20  10  17  am  
 21  11  12  1   
 22  11  35  1   
 23  11  36  1   
 24  12  37  1   
 25  12  38  1   
 26  13  18  1   
 27  14  19  ar  
 28  14  39  1   
 29  15  19  ar  
 30  15  20  1   
 31  17  21  1   
 32  17  22  1   
 33  18  40  1   
 34  18  41  1   
 35  18  42  1   
 36  19  43  1   
 37  20  23  1   
 38  21  24  1   
 39  21  44  1   
 40  21  45  1   
 41  22  25  1   
 42  22  46  1   
 43  22  47  1   
 44  23  48  1   
 45  23  49  1   
 46  23  50  1   
 47  24  26  ar  
 48  24  27  ar  
 49  25  26  1   
 50  25  51  1   
 51  25  52  1   
 52  26  28  ar  
 53  27  29  ar  
 54  27  53  1   
 55  28  30  ar  
 56  28  54  1   
 57  29  30  ar  
 58  29  55  1   
 59  30  56  1   
@<TRIPOS>SUBSTRUCTURE
  1 ****  17 GROUP 4 **** **** 0

# MOE 2024.06 (io_trps.svl 2023.06)
