@<TRIPOS>MOLECULE
7-[3-(3,4-Dimethyl-phenoxy)-2-hydroxy-propyl]-8-ethylamino-1,3-dimethyl-3,7-dihy
57 59 1 0 0 
SMALL
USER_CHARGES


@<TRIPOS>ATOM
  1 O        1.0300     2.3220    -0.0230 O.2   1 <1>  -0.5740 
  2 C        2.2370     2.2760    -0.1380 C.2   1 <1>   0.6870 
  3 N        2.9590     3.4410    -0.3790 N.am  1 <1>  -0.4250 
  4 N        2.8960     1.0580    -0.0220 N.am  1 <1>  -0.4410 
  5 C        4.3460     3.4260    -0.4480 C.2   1 <1>   0.7000 
  6 C        2.2180     4.7340    -0.5120 C.3   1 <1>   0.0530 
  7 C        4.2750     1.0550    -0.1040 C.2   1 <1>   0.4210 
  8 C        2.1310    -0.2000     0.2260 C.3   1 <1>   0.0530 
  9 O        4.9750     4.4630    -0.5990 O.2   1 <1>  -0.5740 
 10 C        5.0130     2.1640    -0.3210 C.2   1 <1>   0.2710 
 11 N        5.1170    -0.0070     0.0260 N.pl3 1 <1>  -0.7030 
 12 N        6.3600     1.7460    -0.3360 N.pl3 1 <1>  -0.7670 
 13 C        6.3630     0.4380    -0.1010 C.cat 1 <1>   1.0690 
 14 C        7.5120     2.6940    -0.4410 C.3   1 <1>   0.3490 
 15 N        7.4570    -0.3140     0.0030 N.pl3 1 <1>  -0.7170 
 16 C        7.8810     3.3190     0.9260 C.3   1 <1>   0.1940 
 17 C        7.5630    -1.7590     0.2930 C.3   1 <1>   0.1610 
 18 O        6.7520     3.8320     1.5660 O.3   1 <1>  -0.6830 
 19 C        8.9270     4.4240     0.7780 C.3   1 <1>   0.1130 
 20 C        8.3370    -1.9300     1.5930 C.3   1 <1>  -0.2460 
 21 O        9.9960     3.9050     0.0160 O.3   1 <1>  -0.3680 
 22 C       11.0610     4.6790    -0.3150 C.ar  1 <1>   0.0760 
 23 C       11.2190     5.9980     0.0990 C.ar  1 <1>  -0.1560 
 24 C       12.0300     4.0990    -1.1130 C.ar  1 <1>  -0.1560 
 25 C       12.3330     6.7300    -0.2840 C.ar  1 <1>  -0.1500 
 26 C       13.1420     4.8240    -1.4980 C.ar  1 <1>  -0.1560 
 27 C       13.3020     6.1390    -1.0890 C.ar  1 <1>  -0.1500 
 28 C       12.4710     8.1700     0.1890 C.3   1 <1>  -0.1030 
 29 C       14.5410     6.9040    -1.5340 C.3   1 <1>  -0.1030 
 30 H        1.2920     4.5810    -1.0390 H     1 <1>   0.0730 
 31 H        2.7970     5.4580    -1.0580 H     1 <1>   0.0730 
 32 H        1.9990     5.1260     0.4670 H     1 <1>   0.0730 
 33 H        1.1160    -0.1010    -0.1220 H     1 <1>   0.0730 
 34 H        2.1110    -0.4110     1.2810 H     1 <1>   0.0730 
 35 H        2.5810    -1.0240    -0.2980 H     1 <1>   0.0730 
 36 H        4.8600    -0.9670     0.2300 H     1 <1>   0.4450 
 37 H        7.2740     3.4790    -1.1400 H     1 <1>   0.0730 
 38 H        8.3700     2.1780    -0.8370 H     1 <1>   0.0730 
 39 H        8.3600     0.1490    -0.0920 H     1 <1>   0.4450 
 40 H        8.2820     2.5570     1.5710 H     1 <1>   0.0730 
 41 H        8.0870    -2.2510    -0.5110 H     1 <1>   0.0730 
 42 H        6.5890    -2.2080     0.3870 H     1 <1>   0.0730 
 43 H        6.3510     4.5620     1.0410 H     1 <1>   0.3950 
 44 H        9.3070     4.7180     1.7410 H     1 <1>   0.0730 
 45 H        8.5220     5.2710     0.2520 H     1 <1>   0.0730 
 46 H        9.3310    -1.5280     1.5040 H     1 <1>   0.0730 
 47 H        8.4250    -2.9780     1.8240 H     1 <1>   0.0730 
 48 H        7.8260    -1.4510     2.4100 H     1 <1>   0.0730 
 49 H       10.4850     6.4700     0.7220 H     1 <1>   0.1440 
 50 H       11.9170     3.0810    -1.4340 H     1 <1>   0.1440 
 51 H       13.8850     4.3570    -2.1190 H     1 <1>   0.1440 
 52 H       11.6420     8.4560     0.8110 H     1 <1>   0.0730 
 53 H       12.5020     8.8330    -0.6570 H     1 <1>   0.0730 
 54 H       13.3750     8.2860     0.7590 H     1 <1>   0.0730 
 55 H       15.1120     7.2100    -0.6770 H     1 <1>   0.0730 
 56 H       14.2550     7.7740    -2.0960 H     1 <1>   0.0730 
 57 H       15.1690     6.2920    -2.1570 H     1 <1>   0.0730 
@<TRIPOS>BOND
  1   1   2  2   
  2   2   3  am  
  3   2   4  am  
  4   3   5  am  
  5   3   6  1   
  6   4   7  1   
  7   4   8  1   
  8   5   9  2   
  9   5  10  1   
 10   6  30  1   
 11   6  31  1   
 12   6  32  1   
 13   7  10  2   
 14   7  11  1   
 15   8  33  1   
 16   8  34  1   
 17   8  35  1   
 18  10  12  1   
 19  11  13  ar  
 20  11  36  1   
 21  12  13  ar  
 22  12  14  1   
 23  13  15  ar  
 24  14  16  1   
 25  14  37  1   
 26  14  38  1   
 27  15  17  1   
 28  15  39  1   
 29  16  18  1   
 30  16  19  1   
 31  16  40  1   
 32  17  20  1   
 33  17  41  1   
 34  17  42  1   
 35  18  43  1   
 36  19  21  1   
 37  19  44  1   
 38  19  45  1   
 39  20  46  1   
 40  20  47  1   
 41  20  48  1   
 42  21  22  1   
 43  22  23  ar  
 44  22  24  ar  
 45  23  25  ar  
 46  23  49  1   
 47  24  26  ar  
 48  24  50  1   
 49  25  27  ar  
 50  25  28  1   
 51  26  27  ar  
 52  26  51  1   
 53  27  29  1   
 54  28  52  1   
 55  28  53  1   
 56  28  54  1   
 57  29  55  1   
 58  29  56  1   
 59  29  57  1   
@<TRIPOS>SUBSTRUCTURE
  1 ****  14 GROUP 4 **** **** 0

# MOE 2024.06 (io_trps.svl 2023.06)
