@<TRIPOS>MOLECULE
6-Methyl-5-(7-methyl-6-oxo-5-propyl-1,3-diaza-tricyclo[3.3.1.1*3,7*]dec-2-yl)-1H
49 52 1 0 0 
SMALL
USER_CHARGES


@<TRIPOS>ATOM
  1 O       -0.8390     0.4940     2.6390 O.2   1 <1>  -0.5700 
  2 C       -1.7270     1.1300     2.1260 C.2   1 <1>   0.6900 
  3 N       -1.6290     2.4660     1.9640 N.am  1 <1>  -0.4900 
  4 N       -2.8640     0.5260     1.6860 N.am  1 <1>  -0.5390 
  5 C       -2.6050     3.2130     1.3810 C.2   1 <1>   0.6160 
  6 C       -3.9130     1.2150     1.1060 C.2   1 <1>  -0.0290 
  7 O       -2.3820     4.3970     1.2750 O.2   1 <1>  -0.5700 
  8 C       -3.7990     2.5640     0.9220 C.2   1 <1>  -0.1240 
  9 C       -5.0970     0.3190     0.7600 C.3   1 <1>  -0.1020 
 10 C       -4.9320     3.3460     0.2550 C.3   1 <1>   0.8310 
 11 N       -4.6850     4.2890    -0.8740 N.4   1 <1>  -0.9590 
 12 N       -5.8520     4.0090     1.1730 N.3   1 <1>  -0.8100 
 13 C       -5.9830     4.4450    -1.6190 C.3   1 <1>   0.3430 
 14 C       -4.2170     5.6690    -0.4800 C.3   1 <1>   0.3430 
 15 C       -7.1820     4.1660     0.5500 C.3   1 <1>   0.1100 
 16 C       -5.3790     5.3120     1.6880 C.3   1 <1>   0.1100 
 17 C       -7.0660     5.0540    -0.7030 C.3   1 <1>   0.0610 
 18 C       -5.1890     6.2940     0.5210 C.3   1 <1>   0.0610 
 19 C       -6.5020     6.4020    -0.2510 C.2   1 <1>   0.4480 
 20 C       -8.4020     5.1550    -1.4870 C.3   1 <1>  -0.1600 
 21 C       -4.6570     7.6480     1.0320 C.3   1 <1>  -0.2400 
 22 O       -6.9900     7.4490    -0.5520 O.2   1 <1>  -0.5700 
 23 C       -9.6230     5.6460    -0.6810 C.3   1 <1>  -0.1600 
 24 C      -10.4650     4.5040    -0.0970 C.3   1 <1>  -0.2400 
 25 H       -0.7880     2.9210     2.3050 H     1 <1>   0.3700 
 26 H       -2.8900    -0.4830     1.8580 H     1 <1>   0.3700 
 27 H       -5.3010    -0.3420     1.5850 H     1 <1>   0.0800 
 28 H       -4.8630    -0.2850    -0.1000 H     1 <1>   0.0800 
 29 H       -6.0010     0.8630     0.5690 H     1 <1>   0.0800 
 30 H       -5.5150     2.5590    -0.1890 H     1 <1>   0.0800 
 31 H       -3.9720     3.8580    -1.4720 H     1 <1>   0.4500 
 32 H       -5.8410     5.0880    -2.4730 H     1 <1>   0.0800 
 33 H       -6.3200     3.4850    -1.9780 H     1 <1>   0.0800 
 34 H       -4.1810     6.2970    -1.3550 H     1 <1>   0.0800 
 35 H       -3.2240     5.6600    -0.0790 H     1 <1>   0.0800 
 36 H       -7.8530     4.6180     1.2630 H     1 <1>   0.0800 
 37 H       -7.5830     3.1990     0.2920 H     1 <1>   0.0800 
 38 H       -6.1070     5.7080     2.3790 H     1 <1>   0.0800 
 39 H       -4.4630     5.1860     2.2380 H     1 <1>   0.0800 
 40 H       -8.6430     4.2080    -1.9390 H     1 <1>   0.0800 
 41 H       -8.2550     5.8510    -2.2970 H     1 <1>   0.0800 
 42 H       -3.7200     7.5230     1.5470 H     1 <1>   0.0800 
 43 H       -5.3630     8.0930     1.7120 H     1 <1>   0.0800 
 44 H       -4.5100     8.3330     0.2140 H     1 <1>   0.0800 
 45 H      -10.2590     6.2060    -1.3460 H     1 <1>   0.0800 
 46 H       -9.3250     6.3230     0.1010 H     1 <1>   0.0800 
 47 H      -10.8130     3.8520    -0.8790 H     1 <1>   0.0800 
 48 H      -11.3290     4.9140     0.3990 H     1 <1>   0.0800 
 49 H       -9.9190     3.9230     0.6220 H     1 <1>   0.0800 
@<TRIPOS>BOND
  1   1   2  2   
  2   2   3  am  
  3   2   4  am  
  4   3   5  am  
  5   3  25  1   
  6   4   6  1   
  7   4  26  1   
  8   5   7  2   
  9   5   8  1   
 10   6   8  2   
 11   6   9  1   
 12   8  10  1   
 13   9  27  1   
 14   9  28  1   
 15   9  29  1   
 16  10  11  1   
 17  10  12  1   
 18  10  30  1   
 19  11  13  1   
 20  11  14  1   
 21  11  31  1   
 22  12  15  1   
 23  12  16  1   
 24  13  17  1   
 25  13  32  1   
 26  13  33  1   
 27  14  18  1   
 28  14  34  1   
 29  14  35  1   
 30  15  17  1   
 31  15  36  1   
 32  15  37  1   
 33  16  18  1   
 34  16  38  1   
 35  16  39  1   
 36  17  19  1   
 37  17  20  1   
 38  18  19  1   
 39  18  21  1   
 40  19  22  2   
 41  20  23  1   
 42  20  40  1   
 43  20  41  1   
 44  21  42  1   
 45  21  43  1   
 46  21  44  1   
 47  23  24  1   
 48  23  45  1   
 49  23  46  1   
 50  24  47  1   
 51  24  48  1   
 52  24  49  1   
@<TRIPOS>SUBSTRUCTURE
  1 ****  10 GROUP 4 **** **** 0

# MOE 2024.06 (io_trps.svl 2023.06)
