@<TRIPOS>MOLECULE
N-[3-(4-Chloro-phenyl)-[1,2,4]oxadiazol-5-ylmethyl]-N-cyclohexyl-acetamide
43 45 1 0 0 
SMALL
USER_CHARGES


@<TRIPOS>ATOM
  1 CL      -0.9020     2.0840     0.4880 Cl    1 <1>  -0.1770 
  2 C       -2.5300     1.5570     0.1540 C.ar  1 <1>   0.1770 
  3 C       -2.9030     1.2810    -1.1470 C.ar  1 <1>  -0.1500 
  4 C       -3.4290     1.4200     1.1930 C.ar  1 <1>  -0.1500 
  5 C       -4.1970     0.8640    -1.4060 C.ar  1 <1>  -0.1500 
  6 C       -4.7190     1.0020     0.9220 C.ar  1 <1>  -0.1500 
  7 C       -5.1380     0.7130    -0.3820 C.ar  1 <1>   0.0540 
  8 C       -6.4950     0.2780    -0.6690 C.2   1 <1>   0.4620 
  9 N       -6.9650     0.0070    -1.8340 N.2   1 <1>  -0.4100 
 10 N       -7.4180     0.1180     0.2850 N.2   1 <1>  -0.5650 
 11 O       -8.2070    -0.3360    -1.6950 O.3   1 <1>  -0.0190 
 12 C       -8.4190    -0.2470    -0.4090 C.2   1 <1>   0.2980 
 13 C       -9.8090    -0.5620     0.1250 C.3   1 <1>   0.3200 
 14 N      -10.8100     0.4950    -0.2530 N.am  1 <1>  -0.6600 
 15 C      -11.8210     0.1520    -1.1190 C.2   1 <1>   0.5690 
 16 C      -10.5060     1.8250     0.3670 C.3   1 <1>   0.2200 
 17 O      -11.9070    -0.9680    -1.5620 O.2   1 <1>  -0.5700 
 18 C      -12.9040     1.1090    -1.5660 C.3   1 <1>  -0.1790 
 19 C      -11.6810     2.4190     1.1570 C.3   1 <1>  -0.1600 
 20 C       -9.9270     2.8220    -0.6490 C.3   1 <1>  -0.1600 
 21 C      -11.2500     3.7140     1.8610 C.3   1 <1>  -0.1600 
 22 C       -9.5140     4.1250     0.0500 C.3   1 <1>  -0.1600 
 23 C      -10.6770     4.7240     0.8550 C.3   1 <1>  -0.1600 
 24 H       -2.1880     1.3930    -1.9430 H     1 <1>   0.1500 
 25 H       -3.1180     1.6390     2.1990 H     1 <1>   0.1500 
 26 H       -4.4840     0.6500    -2.4220 H     1 <1>   0.1500 
 27 H       -5.4160     0.8970     1.7360 H     1 <1>   0.1500 
 28 H       -9.7630    -0.6270     1.1970 H     1 <1>   0.0800 
 29 H      -10.0990    -1.5320    -0.2370 H     1 <1>   0.0800 
 30 H       -9.7280     1.6680     1.0960 H     1 <1>   0.0800 
 31 H      -12.5120     2.0760    -1.7960 H     1 <1>   0.0800 
 32 H      -13.6510     1.1860    -0.8000 H     1 <1>   0.0800 
 33 H      -13.3720     0.7230    -2.4530 H     1 <1>   0.0800 
 34 H      -12.0200     1.7080     1.8900 H     1 <1>   0.0800 
 35 H      -12.4980     2.6610     0.5070 H     1 <1>   0.0800 
 36 H      -10.6470     3.0560    -1.4080 H     1 <1>   0.0800 
 37 H       -9.0640     2.3950    -1.1280 H     1 <1>   0.0800 
 38 H      -10.5050     3.4890     2.6050 H     1 <1>   0.0800 
 39 H      -12.0960     4.1490     2.3660 H     1 <1>   0.0800 
 40 H       -9.1790     4.8370    -0.6840 H     1 <1>   0.0800 
 41 H       -8.6890     3.9260     0.7130 H     1 <1>   0.0800 
 42 H      -10.3360     5.6000     1.3810 H     1 <1>   0.0800 
 43 H      -11.4560     5.0320     0.1780 H     1 <1>   0.0800 
@<TRIPOS>BOND
  1   1   2  1   
  2   2   3  ar  
  3   2   4  ar  
  4   3   5  ar  
  5   3  24  1   
  6   4   6  ar  
  7   4  25  1   
  8   5   7  ar  
  9   5  26  1   
 10   6   7  ar  
 11   6  27  1   
 12   7   8  1   
 13   8   9  2   
 14   8  10  1   
 15   9  11  1   
 16  10  12  2   
 17  11  12  1   
 18  12  13  1   
 19  13  14  1   
 20  13  28  1   
 21  13  29  1   
 22  14  15  am  
 23  14  16  1   
 24  15  17  2   
 25  15  18  1   
 26  16  19  1   
 27  16  20  1   
 28  16  30  1   
 29  18  31  1   
 30  18  32  1   
 31  18  33  1   
 32  19  21  1   
 33  19  34  1   
 34  19  35  1   
 35  20  22  1   
 36  20  36  1   
 37  20  37  1   
 38  21  23  1   
 39  21  38  1   
 40  21  39  1   
 41  22  23  1   
 42  22  40  1   
 43  22  41  1   
 44  23  42  1   
 45  23  43  1   
@<TRIPOS>SUBSTRUCTURE
  1 ****  10 GROUP 4 **** **** 0

# MOE 2024.06 (io_trps.svl 2023.06)
