@<TRIPOS>MOLECULE
2-Ethylsulfanyl-5-o-tolyl-5,8-dihydro-3H,6H-pyrido[2,3-d]pyrimidine-4,7-dione
39 41 1 0 0 
SMALL
USER_CHARGES


@<TRIPOS>ATOM
  1 S       -0.0780     0.6040     0.2680 S.3   1 <1>  -0.3710 
  2 C        1.5490     1.2760     0.0660 C.2   1 <1>   0.6410 
  3 C       -1.0190     1.2740    -1.1730 C.3   1 <1>   0.0700 
  4 N        2.4180     0.9100     1.0380 N.pl3 1 <1>  -0.5500 
  5 N        1.8120     2.0270    -0.9340 N.2   1 <1>  -0.6610 
  6 C       -2.4470     0.7430    -1.0870 C.3   1 <1>  -0.2400 
  7 C        3.6950     1.3680     1.0060 C.2   1 <1>   0.2090 
  8 C        3.0930     2.5010    -1.0110 C.2   1 <1>   0.7670 
  9 N        4.5750     0.9890     1.9870 N.am  1 <1>  -0.5390 
 10 C        4.0490     2.1920    -0.0130 C.2   1 <1>  -0.1240 
 11 O        3.3840     3.1680    -1.9950 O.2   1 <1>  -0.5700 
 12 C        5.9010     1.2810     1.9550 C.2   1 <1>   0.5690 
 13 C        5.4550     2.7850    -0.0720 C.3   1 <1>   0.2020 
 14 O        6.6120     0.9980     2.8810 O.2   1 <1>  -0.5700 
 15 C        6.4770     1.9350     0.7130 C.3   1 <1>  -0.0990 
 16 C        5.4490     4.2360     0.4370 C.ar  1 <1>  -0.1440 
 17 C        5.8650     5.3090    -0.3540 C.ar  1 <1>  -0.1440 
 18 C        5.0140     4.4940     1.7330 C.ar  1 <1>  -0.1500 
 19 C        5.8430     6.5960     0.1650 C.ar  1 <1>  -0.1500 
 20 C        6.3460     5.1400    -1.7910 C.3   1 <1>  -0.0970 
 21 C        4.9960     5.7790     2.2420 C.ar  1 <1>  -0.1500 
 22 C        5.4130     6.8340     1.4560 C.ar  1 <1>  -0.1500 
 23 H       -0.5210     0.9430    -2.0680 H     1 <1>   0.0800 
 24 H       -0.9860     2.3480    -1.1090 H     1 <1>   0.0800 
 25 H        2.0660     0.2910     1.7660 H     1 <1>   0.4000 
 26 H       -2.4460    -0.3320    -1.1220 H     1 <1>   0.0800 
 27 H       -3.0250     1.1150    -1.9130 H     1 <1>   0.0800 
 28 H       -2.9080     1.0650    -0.1700 H     1 <1>   0.0800 
 29 H        4.2670     0.4890     2.8200 H     1 <1>   0.3700 
 30 H        5.7700     2.7580    -1.0970 H     1 <1>   0.0800 
 31 H        6.8320     1.1450     0.0780 H     1 <1>   0.0800 
 32 H        7.3240     2.5380     0.9870 H     1 <1>   0.0800 
 33 H        4.6810     3.6990     2.3730 H     1 <1>   0.1500 
 34 H        6.1600     7.4290    -0.4360 H     1 <1>   0.1500 
 35 H        5.5570     4.7340    -2.3980 H     1 <1>   0.0800 
 36 H        7.1970     4.4840    -1.8250 H     1 <1>   0.0800 
 37 H        6.6370     6.0830    -2.2170 H     1 <1>   0.0800 
 38 H        4.6590     5.9580     3.2480 H     1 <1>   0.1500 
 39 H        5.4010     7.8370     1.8450 H     1 <1>   0.1500 
@<TRIPOS>BOND
  1   1   2  1   
  2   1   3  1   
  3   2   4  1   
  4   2   5  2   
  5   3   6  1   
  6   3  23  1   
  7   3  24  1   
  8   4   7  1   
  9   4  25  1   
 10   5   8  1   
 11   6  26  1   
 12   6  27  1   
 13   6  28  1   
 14   7   9  1   
 15   7  10  2   
 16   8  10  1   
 17   8  11  2   
 18   9  12  am  
 19   9  29  1   
 20  10  13  1   
 21  12  14  2   
 22  12  15  1   
 23  13  15  1   
 24  13  16  1   
 25  13  30  1   
 26  15  31  1   
 27  15  32  1   
 28  16  17  ar  
 29  16  18  ar  
 30  17  19  ar  
 31  17  20  1   
 32  18  21  ar  
 33  18  33  1   
 34  19  22  ar  
 35  19  34  1   
 36  20  35  1   
 37  20  36  1   
 38  20  37  1   
 39  21  22  ar  
 40  21  38  1   
 41  22  39  1   
@<TRIPOS>SUBSTRUCTURE
  1 ****  10 GROUP 4 **** **** 0

# MOE 2024.06 (io_trps.svl 2023.06)
