@<TRIPOS>MOLECULE
2,7-Dimethyl-5-oxo-4-pyridin-3-yl-1,4,5,6,7,8-hexahydro-quinoline-3-carboxylic a
53 56 1 0 0 
SMALL
USER_CHARGES


@<TRIPOS>ATOM
  1 O        0.1680    -0.7460    -1.7230 O.2   1 <1>  -0.5700 
  2 C        0.2170    -1.6970    -0.9810 C.2   1 <1>   0.4950 
  3 C        1.4230    -2.2600    -0.4760 C.2   1 <1>  -0.1240 
  4 C       -1.0990    -2.3610    -0.6090 C.3   1 <1>  -0.0990 
  5 C        1.4660    -3.3870     0.2760 C.2   1 <1>  -0.0380 
  6 C        2.7210    -1.5300    -0.8290 C.3   1 <1>   0.3400 
  7 C       -1.0070    -3.1420     0.7150 C.3   1 <1>  -0.0800 
  8 N        2.6550    -3.9540     0.6650 N.pl3 1 <1>  -0.6000 
  9 C        0.1950    -4.1040     0.7080 C.3   1 <1>  -0.0220 
 10 C        3.9840    -2.3260    -0.4740 C.2   1 <1>  -0.1240 
 11 C        2.7690    -0.2030    -0.0730 C.ar  1 <1>  -0.1440 
 12 C       -2.3140    -3.8940     0.9980 C.3   1 <1>  -0.2400 
 13 C        3.8790    -3.4800     0.2420 C.2   1 <1>  -0.0380 
 14 C        5.1790    -1.6970    -0.9460 C.2   1 <1>   0.6160 
 15 C        2.8040     1.0020    -0.7610 C.ar  1 <1>   0.1600 
 16 C        2.7870    -0.1770     1.3090 C.ar  1 <1>  -0.1500 
 17 C        5.0380    -4.3820     0.6370 C.3   1 <1>  -0.1020 
 18 O        5.2340    -1.2410    -2.0730 O.2   1 <1>  -0.5700 
 19 N        6.2520    -1.5890    -0.1050 N.am  1 <1>  -0.5470 
 20 N        2.8650     2.1980    -0.1940 N.ar  1 <1>  -0.6200 
 21 C        2.8470     1.0590     1.9150 C.ar  1 <1>  -0.1500 
 22 C        7.5350    -1.1140    -0.2410 C.ar  1 <1>   0.4270 
 23 C        2.8850     2.1970     1.1280 C.ar  1 <1>   0.1600 
 24 N        8.3030    -1.4430     0.7880 N.ar  1 <1>  -0.6200 
 25 C        7.9900    -0.3650    -1.3250 C.ar  1 <1>  -0.1500 
 26 C        9.5560    -1.0260     0.7440 C.ar  1 <1>   0.1670 
 27 C        9.2960     0.0640    -1.3630 C.ar  1 <1>  -0.1500 
 28 C       10.0940    -0.2820    -0.2930 C.ar  1 <1>  -0.1500 
 29 C       10.4190    -1.4120     1.9270 C.3   1 <1>  -0.0970 
 30 H       -1.3750    -3.0210    -1.4110 H     1 <1>   0.0800 
 31 H       -1.8560    -1.6020    -0.5290 H     1 <1>   0.0800 
 32 H        2.7160    -1.3520    -1.8910 H     1 <1>   0.0800 
 33 H       -0.8510    -2.4270     1.5070 H     1 <1>   0.0800 
 34 H        2.6330    -4.8190     1.2190 H     1 <1>   0.4000 
 35 H        0.3240    -4.5030     1.6990 H     1 <1>   0.0800 
 36 H        0.0140    -4.9240     0.0350 H     1 <1>   0.0800 
 37 H       -2.5120    -4.6200     0.2290 H     1 <1>   0.0800 
 38 H       -3.1390    -3.2050     1.0390 H     1 <1>   0.0800 
 39 H       -2.2550    -4.4040     1.9440 H     1 <1>   0.0800 
 40 H        2.7830     0.9840    -1.8380 H     1 <1>   0.1500 
 41 H        2.7570    -1.0840     1.8900 H     1 <1>   0.1500 
 42 H        5.2450    -4.2800     1.6870 H     1 <1>   0.0800 
 43 H        5.9310    -4.1590     0.0820 H     1 <1>   0.0800 
 44 H        4.7890    -5.4080     0.4330 H     1 <1>   0.0800 
 45 H        6.1090    -1.9750     0.8220 H     1 <1>   0.3700 
 46 H        2.8650     1.1430     2.9860 H     1 <1>   0.1500 
 47 H        2.9330     3.1570     1.6120 H     1 <1>   0.1500 
 48 H        7.3270    -0.1140    -2.1300 H     1 <1>   0.1500 
 49 H        9.6750     0.6430    -2.1870 H     1 <1>   0.1500 
 50 H       11.1230     0.0270    -0.2710 H     1 <1>   0.1500 
 51 H       10.4570    -2.4830     2.0090 H     1 <1>   0.0800 
 52 H        9.9930    -1.0100     2.8280 H     1 <1>   0.0800 
 53 H       11.4190    -1.0360     1.8180 H     1 <1>   0.0800 
@<TRIPOS>BOND
  1   1   2  2   
  2   2   3  1   
  3   2   4  1   
  4   3   5  2   
  5   3   6  1   
  6   4   7  1   
  7   4  30  1   
  8   4  31  1   
  9   5   8  1   
 10   5   9  1   
 11   6  10  1   
 12   6  11  1   
 13   6  32  1   
 14   7   9  1   
 15   7  12  1   
 16   7  33  1   
 17   8  13  1   
 18   8  34  1   
 19   9  35  1   
 20   9  36  1   
 21  10  13  2   
 22  10  14  1   
 23  11  15  ar  
 24  11  16  ar  
 25  12  37  1   
 26  12  38  1   
 27  12  39  1   
 28  13  17  1   
 29  14  18  2   
 30  14  19  am  
 31  15  20  ar  
 32  15  40  1   
 33  16  21  ar  
 34  16  41  1   
 35  17  42  1   
 36  17  43  1   
 37  17  44  1   
 38  19  22  1   
 39  19  45  1   
 40  20  23  ar  
 41  21  23  ar  
 42  21  46  1   
 43  22  24  ar  
 44  22  25  ar  
 45  23  47  1   
 46  24  26  ar  
 47  25  27  ar  
 48  25  48  1   
 49  26  28  ar  
 50  26  29  1   
 51  27  28  ar  
 52  27  49  1   
 53  28  50  1   
 54  29  51  1   
 55  29  52  1   
 56  29  53  1   
@<TRIPOS>SUBSTRUCTURE
  1 ****  10 GROUP 4 **** **** 0

# MOE 2024.06 (io_trps.svl 2023.06)
