@<TRIPOS>MOLECULE
(3,7-Dimethyl-8-morpholin-4-yl-2,6-dioxo-2,3,6,7-tetrahydro-purin-1-yl)-acetic a
44 46 1 0 0 
SMALL
USER_CHARGES


@<TRIPOS>ATOM
  1 O        0.7300    -0.0090    -2.1670 O.2   1 <1>  -0.5750 
  2 C        1.6030     0.6600    -1.6550 C.2   1 <1>   0.6850 
  3 N        1.3740     2.0000    -1.3820 N.am  1 <1>  -0.4270 
  4 N        2.8290     0.0860    -1.3460 N.am  1 <1>  -0.4430 
  5 C        2.3460     2.7950    -0.7980 C.2   1 <1>   0.6990 
  6 C       -0.0320     2.5260    -1.4810 C.3   1 <1>   0.1930 
  7 C        3.7930     0.8900    -0.7680 C.2   1 <1>   0.4190 
  8 C        3.0930    -1.3570    -1.6240 C.3   1 <1>   0.0510 
  9 O        2.1240     3.9710    -0.5670 O.2   1 <1>  -0.5750 
 10 C        3.6090     2.1950    -0.4830 C.2   1 <1>   0.2690 
 11 C       -0.8450     2.2850    -0.2120 C.2   1 <1>   0.6540 
 12 N        5.0520     0.5400    -0.3970 N.pl3 1 <1>  -0.7040 
 13 N        4.8120     2.6520     0.0950 N.pl3 1 <1>  -0.7680 
 14 O       -2.0350     2.4650    -0.1930 O.2   1 <1>  -0.5750 
 15 O       -0.1740     1.8780     0.8670 O.3   1 <1>  -0.4360 
 16 C        5.6650     1.6130     0.1050 C.cat 1 <1>   1.0680 
 17 C        4.9090     4.0030     0.7200 C.3   1 <1>   0.2660 
 18 C       -0.8330     1.6270     2.0920 C.3   1 <1>   0.0310 
 19 N        6.9480     1.5960     0.5270 N.pl3 1 <1>  -0.5970 
 20 C        7.6630     0.3470     0.9570 C.3   1 <1>   0.1590 
 21 C        7.8530     2.7920     0.5200 C.3   1 <1>   0.1590 
 22 C        8.9880     0.1770     0.1980 C.3   1 <1>   0.1110 
 23 C        9.1780     2.4820    -0.1970 C.3   1 <1>   0.1110 
 24 O        9.7580     1.3300     0.3320 O.3   1 <1>  -0.5650 
 25 H       -0.5430     2.0600    -2.3040 H     1 <1>   0.0710 
 26 H       -0.0170     3.5830    -1.6770 H     1 <1>   0.0710 
 27 H        2.1700    -1.8950    -1.7630 H     1 <1>   0.0710 
 28 H        3.6170    -1.8070    -0.7990 H     1 <1>   0.0710 
 29 H        3.6810    -1.4530    -2.5200 H     1 <1>   0.0710 
 30 H        5.4880    -0.3660    -0.5310 H     1 <1>   0.4440 
 31 H        3.9750     4.2630     1.1880 H     1 <1>   0.0710 
 32 H        5.1330     4.7410    -0.0320 H     1 <1>   0.0710 
 33 H        5.6720     4.0220     1.4790 H     1 <1>   0.0710 
 34 H       -0.1040     1.3090     2.8160 H     1 <1>   0.0710 
 35 H       -1.5670     0.8550     1.9400 H     1 <1>   0.0710 
 36 H       -1.3120     2.5330     2.4220 H     1 <1>   0.0710 
 37 H        7.0550    -0.5260     0.8120 H     1 <1>   0.0710 
 38 H        7.8830     0.4160     2.0090 H     1 <1>   0.0710 
 39 H        8.0650     3.0880     1.5330 H     1 <1>   0.0710 
 40 H        7.3920     3.6190     0.0120 H     1 <1>   0.0710 
 41 H        8.8230    -0.0110    -0.8490 H     1 <1>   0.0710 
 42 H        9.5530    -0.6410     0.6110 H     1 <1>   0.0710 
 43 H        9.8750     3.2910    -0.0580 H     1 <1>   0.0710 
 44 H        9.0260     2.3390    -1.2530 H     1 <1>   0.0710 
@<TRIPOS>BOND
  1   1   2  2   
  2   2   3  am  
  3   2   4  am  
  4   3   5  am  
  5   3   6  1   
  6   4   7  1   
  7   4   8  1   
  8   5   9  2   
  9   5  10  1   
 10   6  11  1   
 11   6  25  1   
 12   6  26  1   
 13   7  10  2   
 14   7  12  1   
 15   8  27  1   
 16   8  28  1   
 17   8  29  1   
 18  10  13  1   
 19  11  14  2   
 20  11  15  1   
 21  12  16  ar  
 22  12  30  1   
 23  13  16  ar  
 24  13  17  1   
 25  15  18  1   
 26  16  19  ar  
 27  17  31  1   
 28  17  32  1   
 29  17  33  1   
 30  18  34  1   
 31  18  35  1   
 32  18  36  1   
 33  19  20  1   
 34  19  21  1   
 35  20  22  1   
 36  20  37  1   
 37  20  38  1   
 38  21  23  1   
 39  21  39  1   
 40  21  40  1   
 41  22  24  1   
 42  22  41  1   
 43  22  42  1   
 44  23  24  1   
 45  23  43  1   
 46  23  44  1   
@<TRIPOS>SUBSTRUCTURE
  1 ****  10 GROUP 4 **** **** 0

# MOE 2024.06 (io_trps.svl 2023.06)
