@<TRIPOS>MOLECULE
8-Azepan-1-yl-7-[3-(3,4-dimethyl-phenoxy)-2-hydroxy-propyl]-3-methyl-3,7-dihydro
64 67 1 0 0 
SMALL
USER_CHARGES


@<TRIPOS>ATOM
  1 O        1.5060     1.2480     0.8750 O.2   1 <1>  -0.5730 
  2 C        2.6650     1.5860     0.9450 C.2   1 <1>   0.6870 
  3 N        3.6690     0.9400     0.2410 N.am  1 <1>  -0.4400 
  4 N        2.9880     2.6410     1.7470 N.am  1 <1>  -0.4940 
  5 C        4.9610     1.4310     0.3700 C.2   1 <1>   0.4220 
  6 C        3.3620    -0.2220    -0.6430 C.3   1 <1>   0.0540 
  7 C        4.2570     3.1180     1.9070 C.2   1 <1>   0.7000 
  8 N        6.0770     0.9850    -0.2580 N.pl3 1 <1>  -0.7030 
  9 C        5.3010     2.4740     1.1580 C.2   1 <1>   0.2720 
 10 O        4.4320     4.0370     2.6830 O.2   1 <1>  -0.5730 
 11 C        7.1160     1.7410     0.1090 C.cat 1 <1>   1.0690 
 12 N        6.6890     2.6600     0.9930 N.pl3 1 <1>  -0.7660 
 13 N        8.3570     1.5340    -0.4000 N.pl3 1 <1>  -0.5950 
 14 C        7.3390     3.9200     1.4690 C.3   1 <1>   0.3490 
 15 C        8.6250     0.5480    -1.4870 C.3   1 <1>   0.1620 
 16 C        9.6280     2.0510     0.1820 C.3   1 <1>   0.1620 
 17 C        7.3960     4.9850     0.3480 C.3   1 <1>   0.1950 
 18 C        8.9120    -0.8470    -0.9150 C.3   1 <1>  -0.1660 
 19 C        9.9940     1.2960     1.4640 C.3   1 <1>  -0.1660 
 20 O        6.1400     5.1220    -0.2510 O.3   1 <1>  -0.6830 
 21 C        7.8670     6.3520     0.8750 C.3   1 <1>   0.1140 
 22 C       10.0610    -0.9140     0.1100 C.3   1 <1>  -0.1660 
 23 C        9.7320    -0.2230     1.4450 C.3   1 <1>  -0.1660 
 24 O        9.0250     6.1990     1.6770 O.3   1 <1>  -0.3670 
 25 C       10.1520     5.6220     1.1910 C.ar  1 <1>   0.0770 
 26 C       10.5090     5.6520    -0.1520 C.ar  1 <1>  -0.1560 
 27 C       10.9480     4.9400     2.0930 C.ar  1 <1>  -0.1560 
 28 C       11.6230     4.9590    -0.6010 C.ar  1 <1>  -0.1490 
 29 C       12.0640     4.2540     1.6530 C.ar  1 <1>  -0.1560 
 30 C       12.4020     4.2470     0.3080 C.ar  1 <1>  -0.1490 
 31 C       11.9770     5.0030    -2.0810 C.3   1 <1>  -0.1020 
 32 C       13.6330     3.4710    -0.1370 C.3   1 <1>  -0.1020 
 33 H        2.2320     3.0900     2.2590 H     1 <1>   0.3660 
 34 H        2.3580    -0.5750    -0.4750 H     1 <1>   0.0740 
 35 H        4.0400    -1.0310    -0.4400 H     1 <1>   0.0740 
 36 H        3.4500     0.0730    -1.6750 H     1 <1>   0.0740 
 37 H        6.1450     0.2050    -0.9000 H     1 <1>   0.4460 
 38 H        8.3200     3.7110     1.8470 H     1 <1>   0.0740 
 39 H        6.7920     4.3280     2.3000 H     1 <1>   0.0740 
 40 H        9.4700     0.8730    -2.0730 H     1 <1>   0.0740 
 41 H        7.7880     0.4980    -2.1620 H     1 <1>   0.0740 
 42 H        9.5750     3.1040     0.3600 H     1 <1>   0.0740 
 43 H       10.4320     1.9200    -0.5240 H     1 <1>   0.0740 
 44 H        8.0690     4.6530    -0.4220 H     1 <1>   0.0740 
 45 H        9.1690    -1.4890    -1.7400 H     1 <1>   0.0740 
 46 H        8.0190    -1.2530    -0.4750 H     1 <1>   0.0740 
 47 H        9.4730     1.7270     2.3000 H     1 <1>   0.0740 
 48 H       11.0420     1.4600     1.6430 H     1 <1>   0.0740 
 49 H        6.1410     5.8510    -0.9060 H     1 <1>   0.3960 
 50 H        7.1100     6.7870     1.5040 H     1 <1>   0.0740 
 51 H        8.0940     7.0330     0.0740 H     1 <1>   0.0740 
 52 H       10.9690    -0.5130    -0.3070 H     1 <1>   0.0740 
 53 H       10.2460    -1.9540     0.3190 H     1 <1>   0.0740 
 54 H        8.7080    -0.4210     1.7080 H     1 <1>   0.0740 
 55 H       10.3380    -0.6670     2.2170 H     1 <1>   0.0740 
 56 H        9.9290     6.2190    -0.8550 H     1 <1>   0.1440 
 57 H       10.6910     4.9440     3.1370 H     1 <1>   0.1440 
 58 H       12.6730     3.7280     2.3670 H     1 <1>   0.1440 
 59 H       11.2770     5.6050    -2.6310 H     1 <1>   0.0740 
 60 H       11.9730     4.0120    -2.4950 H     1 <1>   0.0740 
 61 H       12.9560     5.4300    -2.2090 H     1 <1>   0.0740 
 62 H       13.3650     2.7350    -0.8720 H     1 <1>   0.0740 
 63 H       14.0940     2.9670     0.6940 H     1 <1>   0.0740 
 64 H       14.3560     4.1440    -0.5620 H     1 <1>   0.0740 
@<TRIPOS>BOND
  1   1   2  2   
  2   2   3  am  
  3   2   4  am  
  4   3   5  1   
  5   3   6  1   
  6   4   7  am  
  7   4  33  1   
  8   5   8  1   
  9   5   9  2   
 10   6  34  1   
 11   6  35  1   
 12   6  36  1   
 13   7   9  1   
 14   7  10  2   
 15   8  11  ar  
 16   8  37  1   
 17   9  12  1   
 18  11  12  ar  
 19  11  13  ar  
 20  12  14  1   
 21  13  15  1   
 22  13  16  1   
 23  14  17  1   
 24  14  38  1   
 25  14  39  1   
 26  15  18  1   
 27  15  40  1   
 28  15  41  1   
 29  16  19  1   
 30  16  42  1   
 31  16  43  1   
 32  17  20  1   
 33  17  21  1   
 34  17  44  1   
 35  18  22  1   
 36  18  45  1   
 37  18  46  1   
 38  19  23  1   
 39  19  47  1   
 40  19  48  1   
 41  20  49  1   
 42  21  24  1   
 43  21  50  1   
 44  21  51  1   
 45  22  23  1   
 46  22  52  1   
 47  22  53  1   
 48  23  54  1   
 49  23  55  1   
 50  24  25  1   
 51  25  26  ar  
 52  25  27  ar  
 53  26  28  ar  
 54  26  56  1   
 55  27  29  ar  
 56  27  57  1   
 57  28  30  ar  
 58  28  31  1   
 59  29  30  ar  
 60  29  58  1   
 61  30  32  1   
 62  31  59  1   
 63  31  60  1   
 64  31  61  1   
 65  32  62  1   
 66  32  63  1   
 67  32  64  1   
@<TRIPOS>SUBSTRUCTURE
  1 ****  12 GROUP 4 **** **** 0

# MOE 2024.06 (io_trps.svl 2023.06)
