@<TRIPOS>MOLECULE
6-(Pyrrolidine-1-sulfonyl)-4H-benzo[1,4]oxazin-3-one
33 35 1 0 0 
SMALL
USER_CHARGES


@<TRIPOS>ATOM
  1 S        0.1850    -0.1490    -1.3960 S.o2  1 <1>   1.4470 
  2 O       -0.0760     1.0410    -2.1780 O.2   1 <1>  -0.6500 
  3 O        0.8540    -1.2720    -2.0160 O.2   1 <1>  -0.6500 
  4 N        1.1370     0.3190    -0.0760 N.am  1 <1>  -0.8490 
  5 C       -1.3500    -0.7210    -0.6160 C.ar  1 <1>  -0.0090 
  6 C        0.7200     1.5510     0.5730 C.3   1 <1>   0.1960 
  7 C        2.5310     0.5200    -0.4280 C.3   1 <1>   0.1960 
  8 C       -2.5900    -0.2800    -1.0650 C.ar  1 <1>  -0.1500 
  9 C       -1.3190    -1.6190     0.4460 C.ar  1 <1>  -0.1500 
 10 C        1.9140     1.9410     1.4340 C.3   1 <1>  -0.1600 
 11 C        3.1180     1.2950     0.7460 C.3   1 <1>  -0.1600 
 12 C       -3.7680    -0.7130    -0.4760 C.ar  1 <1>   0.1170 
 13 C       -2.4860    -2.0610     1.0480 C.ar  1 <1>  -0.1500 
 14 N       -5.0130    -0.2610    -0.9180 N.am  1 <1>  -0.5470 
 15 C       -3.7100    -1.6130     0.5900 C.ar  1 <1>   0.0820 
 16 C       -6.1750    -0.7510    -0.4240 C.2   1 <1>   0.5690 
 17 O       -4.8380    -2.0590     1.2090 O.3   1 <1>  -0.3630 
 18 O       -7.2380    -0.3040    -0.7770 O.2   1 <1>  -0.5700 
 19 C       -6.1110    -1.9080     0.5730 C.3   1 <1>   0.1810 
 20 H       -0.1700     1.4010     1.1620 H     1 <1>   0.0800 
 21 H        0.5420     2.3210    -0.1610 H     1 <1>   0.0800 
 22 H        2.6000     1.1100    -1.3290 H     1 <1>   0.0800 
 23 H        3.0300    -0.4240    -0.5810 H     1 <1>   0.0800 
 24 H       -2.6350     0.4120    -1.8880 H     1 <1>   0.1500 
 25 H       -0.3670    -1.9750     0.8050 H     1 <1>   0.1500 
 26 H        1.7910     1.5360     2.4230 H     1 <1>   0.0800 
 27 H        2.0080     3.0100     1.5000 H     1 <1>   0.0800 
 28 H        3.8260     2.0270     0.4000 H     1 <1>   0.0800 
 29 H        3.6130     0.6170     1.4180 H     1 <1>   0.0800 
 30 H       -2.4490    -2.7530     1.8710 H     1 <1>   0.1500 
 31 H       -5.0890     0.4870    -1.6060 H     1 <1>   0.3700 
 32 H       -6.3270    -2.8250     0.0580 H     1 <1>   0.0800 
 33 H       -6.8450    -1.7590     1.3430 H     1 <1>   0.0800 
@<TRIPOS>BOND
  1   1   2  2   
  2   1   3  2   
  3   1   4  am  
  4   1   5  1   
  5   4   6  1   
  6   4   7  1   
  7   5   8  ar  
  8   5   9  ar  
  9   6  10  1   
 10   6  20  1   
 11   6  21  1   
 12   7  11  1   
 13   7  22  1   
 14   7  23  1   
 15   8  12  ar  
 16   8  24  1   
 17   9  13  ar  
 18   9  25  1   
 19  10  11  1   
 20  10  26  1   
 21  10  27  1   
 22  11  28  1   
 23  11  29  1   
 24  12  14  1   
 25  12  15  ar  
 26  13  15  ar  
 27  13  30  1   
 28  14  16  am  
 29  14  31  1   
 30  15  17  1   
 31  16  18  2   
 32  16  19  1   
 33  17  19  1   
 34  19  32  1   
 35  19  33  1   
@<TRIPOS>SUBSTRUCTURE
  1 ****   5 GROUP 4 **** **** 0

# MOE 2024.06 (io_trps.svl 2023.06)
