@<TRIPOS>MOLECULE
Cyclopropanecarboxylic acid (5-methyl-7-oxo-4,7-dihydro-[1,2,4]triazolo[1,5-a]py
28 30 1 0 0 
SMALL
USER_CHARGES


@<TRIPOS>ATOM
  1 O        0.1020    -0.2990     0.0270 O.2   1 <1>  -0.5700 
  2 C       -0.1120    -1.5020    -0.0010 C.2   1 <1>   0.5650 
  3 N       -1.4150    -2.0550     0.0570 N.pl3 1 <1>   0.5610 
  4 C        0.9730    -2.4260    -0.0950 C.2   1 <1>  -0.1360 
  5 N       -2.6500    -1.5100     0.1500 N.2   1 <1>  -0.7070 
  6 C       -1.5850    -3.4010     0.0290 C.2   1 <1>   0.2700 
  7 C        0.7770    -3.7710    -0.1240 C.2   1 <1>  -0.0380 
  8 C       -3.4150    -2.5450     0.1610 C.2   1 <1>   0.5790 
  9 N       -2.8180    -3.7430     0.0950 N.2   1 <1>  -0.5650 
 10 N       -0.5030    -4.2650    -0.0610 N.pl3 1 <1>  -0.5840 
 11 C        1.8990    -4.7850    -0.2220 C.3   1 <1>  -0.1020 
 12 N       -4.7890    -2.5380     0.2510 N.am  1 <1>  -0.4930 
 13 C       -5.6900    -1.5270     0.1710 C.2   1 <1>   0.6300 
 14 O       -5.4180    -0.3690    -0.0240 O.2   1 <1>  -0.5700 
 15 C       -7.1550    -1.9040     0.3420 C.3   1 <1>  -0.1000 
 16 C       -7.7570    -3.1040    -0.3370 C.3   1 <1>  -0.2000 
 17 C       -8.1230    -1.7260    -0.7910 C.3   1 <1>  -0.2000 
 18 H        1.9540    -1.9910    -0.1410 H     1 <1>   0.1500 
 19 H       -0.7100    -5.2710    -0.0800 H     1 <1>   0.4000 
 20 H        1.8870    -5.4330     0.6360 H     1 <1>   0.0800 
 21 H        2.8540    -4.2930    -0.2650 H     1 <1>   0.0800 
 22 H        1.7810    -5.3800    -1.1100 H     1 <1>   0.0800 
 23 H       -5.1670    -3.4700     0.3610 H     1 <1>   0.3700 
 24 H       -7.5110    -1.6440     1.3220 H     1 <1>   0.1000 
 25 H       -8.4970    -3.6830     0.1890 H     1 <1>   0.1000 
 26 H       -7.1660    -3.7040    -1.0080 H     1 <1>   0.1000 
 27 H       -7.7410    -1.3590    -1.7290 H     1 <1>   0.1000 
 28 H       -9.1040    -1.3420    -0.5690 H     1 <1>   0.1000 
@<TRIPOS>BOND
  1   1   2  2   
  2   2   3  1   
  3   2   4  1   
  4   3   5  1   
  5   3   6  1   
  6   4   7  2   
  7   4  18  1   
  8   5   8  2   
  9   6   9  2   
 10   6  10  1   
 11   7  10  1   
 12   7  11  1   
 13   8   9  1   
 14   8  12  1   
 15  10  19  1   
 16  11  20  1   
 17  11  21  1   
 18  11  22  1   
 19  12  13  am  
 20  12  23  1   
 21  13  14  2   
 22  13  15  1   
 23  15  16  1   
 24  15  17  1   
 25  15  24  1   
 26  16  17  1   
 27  16  25  1   
 28  16  26  1   
 29  17  27  1   
 30  17  28  1   
@<TRIPOS>SUBSTRUCTURE
  1 ****   8 GROUP 4 **** **** 0

# MOE 2024.06 (io_trps.svl 2023.06)
