@<TRIPOS>MOLECULE
4-Chloro-N-[1-(2,6-dimethyl-pyrimidin-4-yl)-piperidin-4-yl]-benzenesulfonamide
47 49 1 0 0 
SMALL
USER_CHARGES


@<TRIPOS>ATOM
  1 CL       0.5360    -0.6800     3.0580 Cl    1 <1>  -0.1770 
  2 C        1.8160    -1.2120     2.0000 C.ar  1 <1>   0.1770 
  3 C        1.7840    -2.4930     1.4850 C.ar  1 <1>  -0.1500 
  4 C        2.8460    -0.3460     1.6900 C.ar  1 <1>  -0.1500 
  5 C        2.8040    -2.9100     0.6450 C.ar  1 <1>  -0.1500 
  6 C        3.8590    -0.7760     0.8490 C.ar  1 <1>  -0.1500 
  7 C        3.8580    -2.0620     0.3140 C.ar  1 <1>  -0.0090 
  8 S        5.1930    -2.6080    -0.7870 S.o2  1 <1>   1.4470 
  9 O        5.2640    -1.7530    -1.9500 O.2   1 <1>  -0.6500 
 10 O        5.1710    -4.0430    -0.9410 O.2   1 <1>  -0.6500 
 11 N        6.5760    -2.3430     0.1230 N.am  1 <1>  -0.9140 
 12 C        7.7820    -2.2670    -0.6710 C.3   1 <1>   0.2760 
 13 C        8.9140    -2.9440     0.1030 C.3   1 <1>  -0.1600 
 14 C        8.1190    -0.7970    -0.9430 C.3   1 <1>  -0.1600 
 15 C       10.2480    -2.7800    -0.6270 C.3   1 <1>   0.2090 
 16 C        9.4600    -0.6840    -1.6640 C.3   1 <1>   0.2090 
 17 N       10.5190    -1.3190    -0.8220 N.pl3 1 <1>  -0.8380 
 18 C       11.5890    -0.6830    -0.2750 C.ar  1 <1>   0.4100 
 19 N       12.5190    -1.4430     0.3250 N.ar  1 <1>  -0.6200 
 20 C       11.7640     0.7100    -0.3060 C.ar  1 <1>  -0.1500 
 21 C       13.5620    -0.8780     0.8480 C.ar  1 <1>   0.5280 
 22 C       12.8710     1.2750     0.2540 C.ar  1 <1>   0.2180 
 23 N       13.7690     0.4530     0.8310 N.ar  1 <1>  -0.1790 
 24 C       14.5980    -1.7600     1.5140 C.3   1 <1>  -0.0970 
 25 C       13.1270     2.7730     0.2580 C.3   1 <1>  -0.0970 
 26 H        0.9710    -3.1500     1.7390 H     1 <1>   0.1500 
 27 H        2.8510     0.6480     2.1010 H     1 <1>   0.1500 
 28 H        2.7800    -3.9090     0.2410 H     1 <1>   0.1500 
 29 H        4.6660    -0.1050     0.6020 H     1 <1>   0.1500 
 30 H        6.6470    -3.2040     0.6610 H     1 <1>   0.4200 
 31 H        7.6520    -2.7880    -1.6080 H     1 <1>   0.0800 
 32 H        8.7050    -3.9930     0.2080 H     1 <1>   0.0800 
 33 H        9.0060    -2.5090     1.0830 H     1 <1>   0.0800 
 34 H        8.1710    -0.2530    -0.0170 H     1 <1>   0.0800 
 35 H        7.3590    -0.3520    -1.5580 H     1 <1>   0.0800 
 36 H       10.2060    -3.2630    -1.5890 H     1 <1>   0.0800 
 37 H       11.0200    -3.2650    -0.0560 H     1 <1>   0.0800 
 38 H        9.6690     0.3450    -1.8810 H     1 <1>   0.0800 
 39 H        9.4050    -1.2010    -2.6080 H     1 <1>   0.0800 
 40 H       11.0230     1.3330    -0.7610 H     1 <1>   0.1500 
 41 H       14.6120     0.8270     1.2640 H     1 <1>   0.4570 
 42 H       14.3030    -2.7930     1.4390 H     1 <1>   0.0800 
 43 H       14.6870    -1.5120     2.5560 H     1 <1>   0.0800 
 44 H       15.5520    -1.6480     1.0330 H     1 <1>   0.0800 
 45 H       12.3280     3.2930    -0.2420 H     1 <1>   0.0800 
 46 H       14.0450     3.0000    -0.2550 H     1 <1>   0.0800 
 47 H       13.1850     3.1420     1.2670 H     1 <1>   0.0800 
@<TRIPOS>BOND
  1   1   2  1   
  2   2   3  ar  
  3   2   4  ar  
  4   3   5  ar  
  5   3  26  1   
  6   4   6  ar  
  7   4  27  1   
  8   5   7  ar  
  9   5  28  1   
 10   6   7  ar  
 11   6  29  1   
 12   7   8  1   
 13   8   9  2   
 14   8  10  2   
 15   8  11  am  
 16  11  12  1   
 17  11  30  1   
 18  12  13  1   
 19  12  14  1   
 20  12  31  1   
 21  13  15  1   
 22  13  32  1   
 23  13  33  1   
 24  14  16  1   
 25  14  34  1   
 26  14  35  1   
 27  15  17  1   
 28  15  36  1   
 29  15  37  1   
 30  16  17  1   
 31  16  38  1   
 32  16  39  1   
 33  17  18  1   
 34  18  19  ar  
 35  18  20  ar  
 36  19  21  ar  
 37  20  22  ar  
 38  20  40  1   
 39  21  23  ar  
 40  21  24  1   
 41  22  23  ar  
 42  22  25  1   
 43  23  41  1   
 44  24  42  1   
 45  24  43  1   
 46  24  44  1   
 47  25  45  1   
 48  25  46  1   
 49  25  47  1   
@<TRIPOS>SUBSTRUCTURE
  1 ****  14 GROUP 4 **** **** 0

# MOE 2024.06 (io_trps.svl 2023.06)
