@<TRIPOS>MOLECULE
2-(2-Methyl-4-propylsulfamoyl-phenoxy)-N-pyridin-3-ylmethyl-acetamide
49 50 1 0 0 
SMALL
USER_CHARGES


@<TRIPOS>ATOM
  1 S        0.1090     0.4760     0.8100 S.o2  1 <1>   1.4470 
  2 O       -0.2510    -0.8650     1.2070 O.2   1 <1>  -0.6500 
  3 O       -0.5590     1.6180     1.3930 O.2   1 <1>  -0.6500 
  4 N       -0.1870     0.5020    -0.8430 N.am  1 <1>  -0.9140 
  5 C        1.9050     0.6950     0.9100 C.ar  1 <1>  -0.0090 
  6 C       -1.4930     1.0060    -1.2420 C.3   1 <1>   0.1960 
  7 C        2.5020     1.8660     0.4550 C.ar  1 <1>  -0.1500 
  8 C        2.7260    -0.2980     1.4340 C.ar  1 <1>  -0.1500 
  9 C       -2.5970    -0.0010    -0.9030 C.3   1 <1>  -0.1600 
 10 C        3.8720     2.0610     0.5190 C.ar  1 <1>  -0.1430 
 11 C        4.0950    -0.1220     1.5100 C.ar  1 <1>  -0.1500 
 12 C       -3.9540     0.4610    -1.4460 C.3   1 <1>  -0.2400 
 13 C        4.6660     1.0570     1.0650 C.ar  1 <1>   0.0820 
 14 C        4.4660     3.3580    -0.0150 C.3   1 <1>  -0.0970 
 15 O        6.0010     1.1960     1.1740 O.3   1 <1>  -0.3630 
 16 C        6.4670     2.0120     2.2420 C.3   1 <1>   0.1810 
 17 C        7.4280     3.0790     1.7340 C.2   1 <1>   0.5690 
 18 O        7.6070     4.0690     2.4010 O.2   1 <1>  -0.5700 
 19 N        8.0600     2.8990     0.5470 N.am  1 <1>  -0.7300 
 20 C        9.0510     3.8150    -0.0410 C.3   1 <1>   0.2840 
 21 C       10.1640     2.9870    -0.6480 C.ar  1 <1>  -0.1430 
 22 C       11.1470     2.4460     0.1660 C.ar  1 <1>   0.1600 
 23 C       10.2220     2.7530    -2.0080 C.ar  1 <1>  -0.1500 
 24 N       12.1630     1.7100    -0.2580 N.ar  1 <1>  -0.6200 
 25 C       11.2730     1.9880    -2.4670 C.ar  1 <1>  -0.1500 
 26 C       12.2020     1.5000    -1.5630 C.ar  1 <1>   0.1600 
 27 H       -0.1450    -0.4790    -1.1100 H     1 <1>   0.4200 
 28 H       -1.4820     1.1650    -2.3080 H     1 <1>   0.0800 
 29 H       -1.6900     1.9570    -0.7730 H     1 <1>   0.0800 
 30 H        1.8700     2.6340     0.0430 H     1 <1>   0.1500 
 31 H        2.2890    -1.2170     1.7870 H     1 <1>   0.1500 
 32 H       -2.6780    -0.1120     0.1640 H     1 <1>   0.0800 
 33 H       -2.3600    -0.9600    -1.3310 H     1 <1>   0.0800 
 34 H        4.7230    -0.8960     1.9150 H     1 <1>   0.1500 
 35 H       -4.2260     1.4100    -1.0170 H     1 <1>   0.0800 
 36 H       -4.7140    -0.2570    -1.1920 H     1 <1>   0.0800 
 37 H       -3.9220     0.5600    -2.5170 H     1 <1>   0.0800 
 38 H        3.7650     3.8650    -0.6540 H     1 <1>   0.0800 
 39 H        5.3510     3.1530    -0.5880 H     1 <1>   0.0800 
 40 H        4.7190     4.0120     0.8000 H     1 <1>   0.0800 
 41 H        6.9710     1.3780     2.9460 H     1 <1>   0.0800 
 42 H        5.6310     2.4840     2.7260 H     1 <1>   0.0800 
 43 H        7.8600     2.0500     0.0110 H     1 <1>   0.3700 
 44 H        9.4460     4.4710     0.7180 H     1 <1>   0.0800 
 45 H        8.5750     4.4180    -0.7950 H     1 <1>   0.0800 
 46 H       11.0940     2.6260     1.2270 H     1 <1>   0.1500 
 47 H        9.4840     3.1460    -2.6860 H     1 <1>   0.1500 
 48 H       11.3760     1.7710    -3.5140 H     1 <1>   0.1500 
 49 H       13.0190     0.9040    -1.9340 H     1 <1>   0.1500 
@<TRIPOS>BOND
  1   1   2  2   
  2   1   3  2   
  3   1   4  am  
  4   1   5  1   
  5   4   6  1   
  6   4  27  1   
  7   5   7  ar  
  8   5   8  ar  
  9   6   9  1   
 10   6  28  1   
 11   6  29  1   
 12   7  10  ar  
 13   7  30  1   
 14   8  11  ar  
 15   8  31  1   
 16   9  12  1   
 17   9  32  1   
 18   9  33  1   
 19  10  13  ar  
 20  10  14  1   
 21  11  13  ar  
 22  11  34  1   
 23  12  35  1   
 24  12  36  1   
 25  12  37  1   
 26  13  15  1   
 27  14  38  1   
 28  14  39  1   
 29  14  40  1   
 30  15  16  1   
 31  16  17  1   
 32  16  41  1   
 33  16  42  1   
 34  17  18  2   
 35  17  19  am  
 36  19  20  1   
 37  19  43  1   
 38  20  21  1   
 39  20  44  1   
 40  20  45  1   
 41  21  22  ar  
 42  21  23  ar  
 43  22  24  ar  
 44  22  46  1   
 45  23  25  ar  
 46  23  47  1   
 47  24  26  ar  
 48  25  26  ar  
 49  25  48  1   
 50  26  49  1   
@<TRIPOS>SUBSTRUCTURE
  1 ****  13 GROUP 4 **** **** 0

# MOE 2024.06 (io_trps.svl 2023.06)
