@<TRIPOS>MOLECULE
1-(Furan-2-carbonyl)-piperidine-4-carboxylic acid (2-methoxy-5-methyl-phenyl)-am
47 49 1 0 0 
SMALL
USER_CHARGES


@<TRIPOS>ATOM
  1 O       -0.2130     1.9120    -2.0140 O.2   1 <1>  -0.5700 
  2 C       -0.4110     2.3680    -0.9000 C.2   1 <1>   0.7150 
  3 N        0.6810     2.7650    -0.1450 N.am  1 <1>  -0.6600 
  4 C       -1.7640     2.4570    -0.3880 C.2   1 <1>   0.0550 
  5 C        2.0710     2.3990    -0.5380 C.3   1 <1>   0.1400 
  6 C        0.5830     3.7250     0.9900 C.3   1 <1>   0.1400 
  7 O       -2.7600     2.9010    -1.1500 O.3   1 <1>  -0.2800 
  8 C       -2.2750     2.1420     0.8370 C.2   1 <1>  -0.1500 
  9 C        2.8700     3.6630    -0.8690 C.3   1 <1>  -0.1600 
 10 C        1.3850     4.9890     0.6720 C.3   1 <1>  -0.1600 
 11 C       -3.8740     2.8810    -0.4540 C.2   1 <1>  -0.0100 
 12 C       -3.6420     2.4190     0.7930 C.2   1 <1>  -0.1500 
 13 C        2.8460     4.6660     0.2980 C.3   1 <1>  -0.0190 
 14 C        3.6680     5.9130    -0.0360 C.2   1 <1>   0.5690 
 15 O        3.1110     6.8970    -0.4590 O.2   1 <1>  -0.5700 
 16 N        5.0160     5.8320     0.1680 N.am  1 <1>  -0.5470 
 17 C        6.0850     6.7290    -0.0180 C.ar  1 <1>   0.1170 
 18 C        7.3740     6.2760     0.2860 C.ar  1 <1>   0.0820 
 19 C        5.9250     8.0290    -0.4830 C.ar  1 <1>  -0.1500 
 20 O        7.4930     4.9900     0.7410 O.3   1 <1>  -0.3630 
 21 C        8.4650     7.1230     0.1210 C.ar  1 <1>  -0.1500 
 22 C        7.0120     8.8710    -0.6490 C.ar  1 <1>  -0.1440 
 23 C        8.7530     4.4500     1.0780 C.3   1 <1>   0.0400 
 24 C        8.2810     8.4130    -0.3430 C.ar  1 <1>  -0.1500 
 25 C        6.8090    10.2870    -1.1570 C.3   1 <1>  -0.0970 
 26 H        2.0700     1.7420    -1.3910 H     1 <1>   0.0800 
 27 H        2.5370     1.8740     0.2780 H     1 <1>   0.0800 
 28 H        0.9680     3.2570     1.8800 H     1 <1>   0.0800 
 29 H       -0.4390     4.0060     1.1720 H     1 <1>   0.0800 
 30 H       -1.7460     1.7470     1.6860 H     1 <1>   0.1500 
 31 H        2.4500     4.1180    -1.7500 H     1 <1>   0.0800 
 32 H        3.8840     3.3880    -1.0980 H     1 <1>   0.0800 
 33 H        1.3680     5.6470     1.5230 H     1 <1>   0.0800 
 34 H        0.9060     5.5040    -0.1440 H     1 <1>   0.0800 
 35 H       -4.7860     3.2090    -0.9200 H     1 <1>   0.1500 
 36 H       -4.3420     2.2810     1.5980 H     1 <1>   0.1500 
 37 H        3.3020     4.2000     1.1530 H     1 <1>   0.0800 
 38 H        5.3580     4.9360     0.5160 H     1 <1>   0.3700 
 39 H        4.9440     8.3950    -0.7190 H     1 <1>   0.1500 
 40 H        9.4650     6.8040     0.3470 H     1 <1>   0.1500 
 41 H        8.6070     3.4380     1.4100 H     1 <1>   0.0800 
 42 H        9.1840     5.0360     1.8710 H     1 <1>   0.0800 
 43 H        9.3820     4.4600     0.2050 H     1 <1>   0.0800 
 44 H        9.1320     9.0610    -0.4660 H     1 <1>   0.1500 
 45 H        5.9300    10.3440    -1.7730 H     1 <1>   0.0800 
 46 H        7.6540    10.6010    -1.7440 H     1 <1>   0.0800 
 47 H        6.6930    10.9580    -0.3250 H     1 <1>   0.0800 
@<TRIPOS>BOND
  1   1   2  2   
  2   2   3  am  
  3   2   4  1   
  4   3   5  1   
  5   3   6  1   
  6   4   7  1   
  7   4   8  2   
  8   5   9  1   
  9   5  26  1   
 10   5  27  1   
 11   6  10  1   
 12   6  28  1   
 13   6  29  1   
 14   7  11  1   
 15   8  12  1   
 16   8  30  1   
 17   9  13  1   
 18   9  31  1   
 19   9  32  1   
 20  10  13  1   
 21  10  33  1   
 22  10  34  1   
 23  11  12  2   
 24  11  35  1   
 25  12  36  1   
 26  13  14  1   
 27  13  37  1   
 28  14  15  2   
 29  14  16  am  
 30  16  17  1   
 31  16  38  1   
 32  17  18  ar  
 33  17  19  ar  
 34  18  20  1   
 35  18  21  ar  
 36  19  22  ar  
 37  19  39  1   
 38  20  23  1   
 39  21  24  ar  
 40  21  40  1   
 41  22  24  ar  
 42  22  25  1   
 43  23  41  1   
 44  23  42  1   
 45  23  43  1   
 46  24  44  1   
 47  25  45  1   
 48  25  46  1   
 49  25  47  1   
@<TRIPOS>SUBSTRUCTURE
  1 ****  13 GROUP 4 **** **** 0

# MOE 2024.06 (io_trps.svl 2023.06)
