@<TRIPOS>MOLECULE
2-(4-Acetyl-piperazin-1-ylmethyl)-3H-quinazolin-4-one
39 41 1 0 0 
SMALL
USER_CHARGES


@<TRIPOS>ATOM
  1 O        0.8190     1.0330    -1.9040 O.2   1 <1>  -0.5700 
  2 C        1.6470     1.4640    -1.1220 C.2   1 <1>   0.6950 
  3 N        2.8750     0.8470    -1.0940 N.2   1 <1>  -0.6610 
  4 C        1.3410     2.5830    -0.2620 C.ar  1 <1>   0.0860 
  5 C        3.7550     1.2870    -0.2750 C.2   1 <1>   0.4390 
  6 C        2.3430     3.0200     0.6050 C.ar  1 <1>   0.1000 
  7 C        0.1130     3.2550    -0.2430 C.ar  1 <1>  -0.1500 
  8 N        3.5400     2.3350     0.5620 N.pl3 1 <1>  -0.5500 
  9 C        5.1390     0.6400    -0.1830 C.3   1 <1>   0.1710 
 10 C        2.1250     4.0960     1.4610 C.ar  1 <1>  -0.1500 
 11 C       -0.1020     4.3210     0.6060 C.ar  1 <1>  -0.1500 
 12 N        6.1960     1.5850     0.2820 N.3   1 <1>  -0.8100 
 13 C        0.9090     4.7440     1.4610 C.ar  1 <1>  -0.1500 
 14 C        7.3880     0.8410     0.7460 C.3   1 <1>   0.1100 
 15 C        6.5860     2.5130    -0.8060 C.3   1 <1>   0.1100 
 16 C        8.4880     1.7870     1.2560 C.3   1 <1>   0.1400 
 17 C        7.6680     3.5100    -0.3500 C.3   1 <1>   0.1400 
 18 N        8.8540     2.7960     0.2150 N.am  1 <1>  -0.6600 
 19 C       10.1600     3.0040    -0.1430 C.2   1 <1>   0.5690 
 20 O       11.0680     2.3710     0.3390 O.2   1 <1>  -0.5700 
 21 C       10.5180     4.0520    -1.1700 C.3   1 <1>  -0.1790 
 22 H       -0.6680     2.9260    -0.9080 H     1 <1>   0.1500 
 23 H        4.3550     2.6130     1.1210 H     1 <1>   0.4000 
 24 H        5.4030     0.2230    -1.1400 H     1 <1>   0.0800 
 25 H        5.0570    -0.1720     0.5170 H     1 <1>   0.0800 
 26 H        2.9090     4.4180     2.1220 H     1 <1>   0.1500 
 27 H       -1.0510     4.8290     0.6090 H     1 <1>   0.1500 
 28 H        0.7340     5.5760     2.1220 H     1 <1>   0.1500 
 29 H        7.7870     0.2430    -0.0560 H     1 <1>   0.0800 
 30 H        7.1080     0.1790     1.5480 H     1 <1>   0.0800 
 31 H        5.7240     3.0660    -1.1360 H     1 <1>   0.0800 
 32 H        6.9620     1.9540    -1.6470 H     1 <1>   0.0800 
 33 H        9.3490     1.2040     1.5360 H     1 <1>   0.0800 
 34 H        8.1370     2.2990     2.1340 H     1 <1>   0.0800 
 35 H        7.2550     4.1530     0.4070 H     1 <1>   0.0800 
 36 H        7.9490     4.1210    -1.1870 H     1 <1>   0.0800 
 37 H       10.1030     3.7840    -2.1230 H     1 <1>   0.0800 
 38 H       11.5860     4.1150    -1.2650 H     1 <1>   0.0800 
 39 H       10.1440     5.0100    -0.8620 H     1 <1>   0.0800 
@<TRIPOS>BOND
  1   1   2  2   
  2   2   3  1   
  3   2   4  1   
  4   3   5  2   
  5   4   6  ar  
  6   4   7  ar  
  7   5   8  1   
  8   5   9  1   
  9   6   8  1   
 10   6  10  ar  
 11   7  11  ar  
 12   7  22  1   
 13   8  23  1   
 14   9  12  1   
 15   9  24  1   
 16   9  25  1   
 17  10  13  ar  
 18  10  26  1   
 19  11  13  ar  
 20  11  27  1   
 21  12  14  1   
 22  12  15  1   
 23  13  28  1   
 24  14  16  1   
 25  14  29  1   
 26  14  30  1   
 27  15  17  1   
 28  15  31  1   
 29  15  32  1   
 30  16  18  1   
 31  16  33  1   
 32  16  34  1   
 33  17  18  1   
 34  17  35  1   
 35  17  36  1   
 36  18  19  am  
 37  19  20  2   
 38  19  21  1   
 39  21  37  1   
 40  21  38  1   
 41  21  39  1   
@<TRIPOS>SUBSTRUCTURE
  1 ****   8 GROUP 4 **** **** 0

# MOE 2024.06 (io_trps.svl 2023.06)
