@<TRIPOS>MOLECULE
6-Benzyl-5-methyl-7-(4-methyl-piperazin-1-yl)-[1,2,4]triazolo[1,5-a]pyrimidine
48 51 1 0 0 
SMALL
USER_CHARGES


@<TRIPOS>ATOM
  1 N       -0.0070     0.1160    -1.4620 N.2   1 <1>  -0.6120 
  2 C        1.0850     0.8210    -1.6270 C.2   1 <1>   0.3750 
  3 C       -1.0000     0.7560    -0.8750 C.cat 1 <1>   0.9620 
  4 C        1.2220     2.1590    -1.2280 C.2   1 <1>  -0.1240 
  5 C        2.2200     0.0610    -2.2940 C.3   1 <1>  -0.1790 
  6 N       -2.1920     0.2620    -0.6130 N.pl3 1 <1>  -0.7000 
  7 N       -0.9800     2.0200    -0.4390 N.pl3 1 <1>  -0.3220 
  8 C        0.1440     2.7730    -0.6110 C.2   1 <1>   0.4790 
  9 C        2.5290     2.9400    -1.4480 C.3   1 <1>   0.1220 
 10 C       -2.8930     1.2580    -0.0120 C.2   1 <1>   0.5030 
 11 N       -2.2030     2.3320     0.1140 N.2   1 <1>  -0.2600 
 12 N        0.1270     4.0570    -0.1360 N.pl3 1 <1>  -0.8380 
 13 C        3.1910     3.4180    -0.1570 C.ar  1 <1>  -0.1430 
 14 C        0.0640     4.3300     1.3360 C.3   1 <1>   0.2090 
 15 C       -0.0200     5.2610    -1.0120 C.3   1 <1>   0.2090 
 16 C        3.0910     2.7010     1.0280 C.ar  1 <1>  -0.1500 
 17 C        3.9360     4.5890    -0.1730 C.ar  1 <1>  -0.1500 
 18 C        1.0220     5.4730     1.7380 C.3   1 <1>   0.3430 
 19 C        0.9170     6.4100    -0.5640 C.3   1 <1>   0.3430 
 20 C        3.7040     3.1610     2.1810 C.ar  1 <1>  -0.1500 
 21 C        4.5530     5.0480     0.9780 C.ar  1 <1>  -0.1500 
 22 N        0.8170     6.7180     0.9100 N.4   1 <1>  -0.9590 
 23 C        4.4330     4.3370     2.1570 C.ar  1 <1>  -0.1500 
 24 C        1.8050     7.7680     1.3030 C.3   1 <1>   0.2630 
 25 H        2.4710     0.5130    -3.2370 H     1 <1>   0.0800 
 26 H        1.9380    -0.9600    -2.4830 H     1 <1>   0.0800 
 27 H        3.0880     0.0490    -1.6590 H     1 <1>   0.0800 
 28 H       -2.4690    -0.6890    -0.8480 H     1 <1>   0.4500 
 29 H        2.3100     3.7910    -2.0670 H     1 <1>   0.0800 
 30 H        3.2610     2.3680    -1.9860 H     1 <1>   0.0800 
 31 H       -3.9160     1.1390     0.3150 H     1 <1>   0.1500 
 32 H        0.3320     3.4410     1.8830 H     1 <1>   0.0800 
 33 H       -0.9440     4.5910     1.6090 H     1 <1>   0.0800 
 34 H       -1.0410     5.6010    -0.9730 H     1 <1>   0.0800 
 35 H        0.1950     5.0000    -2.0350 H     1 <1>   0.0800 
 36 H        2.5500     1.7720     1.0710 H     1 <1>   0.1500 
 37 H        4.0630     5.1450    -1.0870 H     1 <1>   0.1500 
 38 H        2.0320     5.1230     1.6130 H     1 <1>   0.0800 
 39 H        0.8820     5.6990     2.7820 H     1 <1>   0.0800 
 40 H        0.6880     7.2930    -1.1380 H     1 <1>   0.0800 
 41 H        1.9290     6.1240    -0.7960 H     1 <1>   0.0800 
 42 H        3.6300     2.5960     3.0950 H     1 <1>   0.1500 
 43 H        5.1460     5.9480     0.9540 H     1 <1>   0.1500 
 44 H       -0.1330     7.0720     1.1000 H     1 <1>   0.4500 
 45 H        4.9230     4.6840     3.0520 H     1 <1>   0.1500 
 46 H        2.8100     7.4180     1.1290 H     1 <1>   0.0800 
 47 H        1.7020     8.0080     2.3490 H     1 <1>   0.0800 
 48 H        1.6480     8.6670     0.7290 H     1 <1>   0.0800 
@<TRIPOS>BOND
  1   1   2  2   
  2   1   3  1   
  3   2   4  1   
  4   2   5  1   
  5   3   6  ar  
  6   3   7  ar  
  7   4   8  2   
  8   4   9  1   
  9   5  25  1   
 10   5  26  1   
 11   5  27  1   
 12   6  10  1   
 13   6  28  1   
 14   7   8  1   
 15   7  11  1   
 16   8  12  1   
 17   9  13  1   
 18   9  29  1   
 19   9  30  1   
 20  10  11  2   
 21  10  31  1   
 22  12  14  1   
 23  12  15  1   
 24  13  16  ar  
 25  13  17  ar  
 26  14  18  1   
 27  14  32  1   
 28  14  33  1   
 29  15  19  1   
 30  15  34  1   
 31  15  35  1   
 32  16  20  ar  
 33  16  36  1   
 34  17  21  ar  
 35  17  37  1   
 36  18  22  1   
 37  18  38  1   
 38  18  39  1   
 39  19  22  1   
 40  19  40  1   
 41  19  41  1   
 42  20  23  ar  
 43  20  42  1   
 44  21  23  ar  
 45  21  43  1   
 46  22  24  1   
 47  22  44  1   
 48  23  45  1   
 49  24  46  1   
 50  24  47  1   
 51  24  48  1   
@<TRIPOS>SUBSTRUCTURE
  1 ****   8 GROUP 4 **** **** 0

# MOE 2024.06 (io_trps.svl 2023.06)
