@<TRIPOS>MOLECULE
7-[3-(3-Ethyl-phenoxy)-2-hydroxy-propyl]-3-methyl-8-piperidin-1-yl-3,7-dihydro-p
61 64 1 0 0 
SMALL
USER_CHARGES


@<TRIPOS>ATOM
  1 O        1.3500     2.0200     1.5900 O.2   1 <1>  -0.5740 
  2 C        2.3890     2.1700     0.9910 C.2   1 <1>   0.6870 
  3 N        3.4800     1.3350     1.1790 N.am  1 <1>  -0.4400 
  4 N        2.4840     3.1980     0.0990 N.am  1 <1>  -0.4940 
  5 C        4.6290     1.6040     0.4490 C.2   1 <1>   0.4220 
  6 C        3.4270     0.2070     2.1550 C.3   1 <1>   0.0540 
  7 C        3.6030     3.4680    -0.6350 C.2   1 <1>   0.7000 
  8 N        5.8150     0.9460     0.5030 N.pl3 1 <1>  -0.7030 
  9 C        4.7390     2.6110    -0.4470 C.2   1 <1>   0.2720 
 10 O        3.5800     4.4070    -1.4070 O.2   1 <1>  -0.5740 
 11 C        6.6630     1.5350    -0.3400 C.cat 1 <1>   1.0690 
 12 N        6.0490     2.5510    -0.9650 N.pl3 1 <1>  -0.7670 
 13 N        7.9400     1.1260    -0.4980 N.pl3 1 <1>  -0.5950 
 14 C        6.7050     3.7710    -1.5390 C.3   1 <1>   0.3490 
 15 C        8.7150     0.4660     0.5920 C.3   1 <1>   0.1620 
 16 C        8.6560     1.1500    -1.8050 C.3   1 <1>   0.1620 
 17 C        7.6410     4.4700    -0.5230 C.3   1 <1>   0.1940 
 18 C        9.0440    -0.9770     0.1990 C.3   1 <1>  -0.1660 
 19 C        9.0140    -0.2800    -2.2270 C.3   1 <1>  -0.1660 
 20 O        7.1280     4.3740     0.7720 O.3   1 <1>  -0.6830 
 21 C        7.8630     5.9500    -0.8520 C.3   1 <1>   0.1140 
 22 C        9.7960    -1.0250    -1.1370 C.3   1 <1>  -0.1660 
 23 O        8.6440     6.5210     0.1770 O.3   1 <1>  -0.3670 
 24 C        9.0490     7.8140     0.1140 C.ar  1 <1>   0.0760 
 25 C        9.9170     8.2450     1.1050 C.ar  1 <1>  -0.1560 
 26 C        8.6430     8.7040    -0.8760 C.ar  1 <1>  -0.1560 
 27 C       10.3870     9.5480     1.1190 C.ar  1 <1>  -0.1490 
 28 C        9.1120    10.0060    -0.8660 C.ar  1 <1>  -0.1560 
 29 C        9.9810    10.4260     0.1270 C.ar  1 <1>  -0.1560 
 30 C       11.3400    10.0100     2.2100 C.3   1 <1>  -0.0230 
 31 C       12.7930     9.7880     1.7860 C.3   1 <1>  -0.2450 
 32 H        1.6670     3.7950    -0.0160 H     1 <1>   0.3650 
 33 H        2.4210     0.0530     2.5070 H     1 <1>   0.0740 
 34 H        4.0540     0.4290     3.0010 H     1 <1>   0.0740 
 35 H        3.7620    -0.7020     1.6870 H     1 <1>   0.0740 
 36 H        6.0460     0.1380     1.0710 H     1 <1>   0.4460 
 37 H        5.9520     4.4740    -1.8470 H     1 <1>   0.0740 
 38 H        7.2590     3.5210    -2.4250 H     1 <1>   0.0740 
 39 H        8.1720     0.4810     1.5220 H     1 <1>   0.0740 
 40 H        9.6330     1.0100     0.7450 H     1 <1>   0.0740 
 41 H        9.5530     1.7380    -1.7110 H     1 <1>   0.0740 
 42 H        8.0390     1.5790    -2.5740 H     1 <1>   0.0740 
 43 H        8.5960     3.9750    -0.5250 H     1 <1>   0.0740 
 44 H        8.1370    -1.5510     0.1280 H     1 <1>   0.0740 
 45 H        9.6540    -1.4250     0.9650 H     1 <1>   0.0740 
 46 H        9.6040    -0.2470    -3.1270 H     1 <1>   0.0740 
 47 H        8.1120    -0.8190    -2.4550 H     1 <1>   0.0740 
 48 H        7.5750     5.0610     1.3230 H     1 <1>   0.3950 
 49 H        6.9250     6.4770    -0.9000 H     1 <1>   0.0740 
 50 H        8.3950     6.0600    -1.7810 H     1 <1>   0.0740 
 51 H        9.9480    -2.0500    -1.4340 H     1 <1>   0.0740 
 52 H       10.7660    -0.5720    -1.0190 H     1 <1>   0.0740 
 53 H       10.2260     7.5520     1.8650 H     1 <1>   0.1440 
 54 H        7.9690     8.4130    -1.6570 H     1 <1>   0.1440 
 55 H        8.8020    10.6960    -1.6300 H     1 <1>   0.1440 
 56 H       10.3420    11.4390     0.1240 H     1 <1>   0.1440 
 57 H       11.1430     9.4670     3.1180 H     1 <1>   0.0740 
 58 H       11.1790    11.0540     2.4130 H     1 <1>   0.0740 
 59 H       12.9680     8.7430     1.5990 H     1 <1>   0.0740 
 60 H       13.4600    10.1190     2.5610 H     1 <1>   0.0740 
 61 H       13.0040    10.3380     0.8860 H     1 <1>   0.0740 
@<TRIPOS>BOND
  1   1   2  2   
  2   2   3  am  
  3   2   4  am  
  4   3   5  1   
  5   3   6  1   
  6   4   7  am  
  7   4  32  1   
  8   5   8  1   
  9   5   9  2   
 10   6  33  1   
 11   6  34  1   
 12   6  35  1   
 13   7   9  1   
 14   7  10  2   
 15   8  11  ar  
 16   8  36  1   
 17   9  12  1   
 18  11  12  ar  
 19  11  13  ar  
 20  12  14  1   
 21  13  15  1   
 22  13  16  1   
 23  14  17  1   
 24  14  37  1   
 25  14  38  1   
 26  15  18  1   
 27  15  39  1   
 28  15  40  1   
 29  16  19  1   
 30  16  41  1   
 31  16  42  1   
 32  17  20  1   
 33  17  21  1   
 34  17  43  1   
 35  18  22  1   
 36  18  44  1   
 37  18  45  1   
 38  19  22  1   
 39  19  46  1   
 40  19  47  1   
 41  20  48  1   
 42  21  23  1   
 43  21  49  1   
 44  21  50  1   
 45  22  51  1   
 46  22  52  1   
 47  23  24  1   
 48  24  25  ar  
 49  24  26  ar  
 50  25  27  ar  
 51  25  53  1   
 52  26  28  ar  
 53  26  54  1   
 54  27  29  ar  
 55  27  30  1   
 56  28  29  ar  
 57  28  55  1   
 58  29  56  1   
 59  30  31  1   
 60  30  57  1   
 61  30  58  1   
 62  31  59  1   
 63  31  60  1   
 64  31  61  1   
@<TRIPOS>SUBSTRUCTURE
  1 ****  20 GROUP 4 **** **** 0

# MOE 2024.06 (io_trps.svl 2023.06)
