@<TRIPOS>MOLECULE
2-Ethylsulfanyl-1-methyl-5-phenyl-5,8-dihydro-1H,6H-pyrido[2,3-d]pyrimidine-4,7-
39 41 1 0 0 
SMALL
USER_CHARGES


@<TRIPOS>ATOM
  1 S        0.0440     0.3570    -1.0890 S.3   1 <1>  -0.3710 
  2 C        1.4130     1.3030    -0.4330 C.2   1 <1>   0.6410 
  3 C       -1.4380     1.4570    -0.9590 C.3   1 <1>   0.0700 
  4 N        1.1670     2.4970    -0.0530 N.2   1 <1>  -0.6610 
  5 N        2.6360     0.6700    -0.3770 N.pl3 1 <1>  -0.5190 
  6 C       -2.0050     1.3320     0.4540 C.3   1 <1>  -0.2400 
  7 C        2.2050     3.2090     0.4610 C.2   1 <1>   0.7670 
  8 C        3.6940     1.3690     0.1580 C.2   1 <1>   0.2090 
  9 C        2.7870    -0.7090    -0.9400 C.3   1 <1>   0.1290 
 10 O        1.9380     4.3080     0.9300 O.2   1 <1>  -0.5700 
 11 C        3.5120     2.6690     0.5100 C.2   1 <1>  -0.1240 
 12 N        4.8940     0.7360     0.3840 N.am  1 <1>  -0.5390 
 13 C        4.6780     3.5280     1.0150 C.3   1 <1>   0.2020 
 14 C        6.0020     1.3330     0.8800 C.2   1 <1>   0.5690 
 15 C        4.7750     4.8540     0.2600 C.ar  1 <1>  -0.1440 
 16 C        6.0590     2.8410     0.9240 C.3   1 <1>  -0.0990 
 17 O        6.9380     0.6780     1.2500 O.2   1 <1>  -0.5700 
 18 C        4.7810     4.8820    -1.1290 C.ar  1 <1>  -0.1500 
 19 C        4.8660     6.0510     0.9570 C.ar  1 <1>  -0.1500 
 20 C        4.8820     6.0840    -1.8080 C.ar  1 <1>  -0.1500 
 21 C        4.9670     7.2530     0.2790 C.ar  1 <1>  -0.1500 
 22 C        4.9760     7.2710    -1.1040 C.ar  1 <1>  -0.1500 
 23 H       -2.1460     1.1180    -1.6950 H     1 <1>   0.0800 
 24 H       -1.1330     2.4640    -1.1860 H     1 <1>   0.0800 
 25 H       -2.2700     0.3100     0.6600 H     1 <1>   0.0800 
 26 H       -2.8840     1.9430     0.5490 H     1 <1>   0.0800 
 27 H       -1.2800     1.6620     1.1760 H     1 <1>   0.0800 
 28 H        2.3640    -0.7500    -1.9280 H     1 <1>   0.0800 
 29 H        2.2750    -1.4150    -0.3090 H     1 <1>   0.0800 
 30 H        3.8180    -0.9970    -1.0220 H     1 <1>   0.0800 
 31 H        4.9500    -0.2790     0.3370 H     1 <1>   0.3700 
 32 H        4.4780     3.7310     2.0530 H     1 <1>   0.0800 
 33 H        6.6660     3.1490     1.7550 H     1 <1>   0.0800 
 34 H        6.5670     3.1500     0.0290 H     1 <1>   0.0800 
 35 H        4.7070     3.9690    -1.6940 H     1 <1>   0.1500 
 36 H        4.8520     6.0580     2.0330 H     1 <1>   0.1500 
 37 H        4.8840     6.0960    -2.8840 H     1 <1>   0.1500 
 38 H        5.0340     8.1760     0.8280 H     1 <1>   0.1500 
 39 H        5.0520     8.2060    -1.6310 H     1 <1>   0.1500 
@<TRIPOS>BOND
  1   1   2  1   
  2   1   3  1   
  3   2   4  2   
  4   2   5  1   
  5   3   6  1   
  6   3  23  1   
  7   3  24  1   
  8   4   7  1   
  9   5   8  1   
 10   5   9  1   
 11   6  25  1   
 12   6  26  1   
 13   6  27  1   
 14   7  10  2   
 15   7  11  1   
 16   8  11  2   
 17   8  12  1   
 18   9  28  1   
 19   9  29  1   
 20   9  30  1   
 21  11  13  1   
 22  12  14  am  
 23  12  31  1   
 24  13  15  1   
 25  13  16  1   
 26  13  32  1   
 27  14  16  1   
 28  14  17  2   
 29  15  18  ar  
 30  15  19  ar  
 31  16  33  1   
 32  16  34  1   
 33  18  20  ar  
 34  18  35  1   
 35  19  21  ar  
 36  19  36  1   
 37  20  22  ar  
 38  20  37  1   
 39  21  22  ar  
 40  21  38  1   
 41  22  39  1   
@<TRIPOS>SUBSTRUCTURE
  1 ****  11 GROUP 4 **** **** 0

# MOE 2024.06 (io_trps.svl 2023.06)
