@<TRIPOS>MOLECULE
4-(5-Oxo-1-p-tolyl-pyrrolidine-3-carbonyl)-piperazine-1-carboxylic acid ethyl es
51 53 1 0 0 
SMALL
USER_CHARGES


@<TRIPOS>ATOM
  1 O        0.4500     0.1410    -1.0100 O.2   1 <1>  -0.5700 
  2 C        1.5490    -0.1360    -0.6000 C.2   1 <1>   0.5690 
  3 N        1.9450    -1.3140    -0.0300 N.am  1 <1>  -0.4770 
  4 C        2.6950     0.8330    -0.6940 C.3   1 <1>  -0.0990 
  5 C        1.1950    -2.4880     0.1770 C.ar  1 <1>   0.1170 
  6 C        3.3800    -1.2620     0.3110 C.3   1 <1>   0.1400 
  7 C        3.9210    -0.0750    -0.4890 C.3   1 <1>  -0.0190 
  8 C        1.4110    -3.2840     1.2990 C.ar  1 <1>  -0.1500 
  9 C        0.2310    -2.8970    -0.7370 C.ar  1 <1>  -0.1500 
 10 C        5.1200     0.5610     0.2090 C.2   1 <1>   0.5690 
 11 C        0.6980    -4.4530     1.4920 C.ar  1 <1>  -0.1500 
 12 C       -0.4850    -4.0650    -0.5460 C.ar  1 <1>  -0.1500 
 13 O        4.8990     1.4380     1.0080 O.2   1 <1>  -0.5700 
 14 N        6.4030     0.1340    -0.0400 N.am  1 <1>  -0.6600 
 15 C       -0.2530    -4.8540     0.5680 C.ar  1 <1>  -0.1430 
 16 C        6.8060    -1.0700    -0.8390 C.3   1 <1>   0.1400 
 17 C        7.5780     0.8590     0.5490 C.3   1 <1>   0.1400 
 18 C       -1.0400    -6.1340     0.7770 C.3   1 <1>  -0.0970 
 19 C        7.6880    -2.0200    -0.0100 C.3   1 <1>   0.1400 
 20 C        8.4510    -0.0840     1.3890 C.3   1 <1>   0.1400 
 21 N        8.8370    -1.2890     0.5970 N.am  1 <1>  -0.6600 
 22 C       10.1480    -1.6330     0.3980 C.2   1 <1>   0.7800 
 23 O       11.0710    -0.9970     0.8680 O.2   1 <1>  -0.5700 
 24 O       10.3990    -2.7090    -0.3490 O.3   1 <1>  -0.4300 
 25 C       11.7230    -3.1230    -0.5960 C.3   1 <1>   0.1200 
 26 C       11.6730    -4.3670    -1.4780 C.3   1 <1>  -0.2400 
 27 H        2.5840     1.5600     0.0910 H     1 <1>   0.0800 
 28 H        2.7110     1.3250    -1.6480 H     1 <1>   0.0800 
 29 H        3.8720    -2.1800     0.0430 H     1 <1>   0.0800 
 30 H        3.4820    -1.0830     1.3690 H     1 <1>   0.0800 
 31 H        4.2140    -0.4220    -1.4610 H     1 <1>   0.0800 
 32 H        2.1340    -2.9880     2.0350 H     1 <1>   0.1500 
 33 H        0.0360    -2.2950    -1.6070 H     1 <1>   0.1500 
 34 H        0.8820    -5.0500     2.3680 H     1 <1>   0.1500 
 35 H       -1.2260    -4.3540    -1.2700 H     1 <1>   0.1500 
 36 H        7.3600    -0.7460    -1.7040 H     1 <1>   0.0800 
 37 H        5.9510    -1.6190    -1.1830 H     1 <1>   0.0800 
 38 H        7.2550     1.6790     1.1670 H     1 <1>   0.0800 
 39 H        8.1730     1.2710    -0.2480 H     1 <1>   0.0800 
 40 H       -0.4670    -6.8410     1.3500 H     1 <1>   0.0800 
 41 H       -1.2840    -6.5830    -0.1690 H     1 <1>   0.0800 
 42 H       -1.9520    -5.9170     1.3040 H     1 <1>   0.0800 
 43 H        8.0330    -2.8200    -0.6410 H     1 <1>   0.0800 
 44 H        7.0980    -2.4560     0.7780 H     1 <1>   0.0800 
 45 H        7.9020    -0.3930     2.2610 H     1 <1>   0.0800 
 46 H        9.3260     0.4480     1.7220 H     1 <1>   0.0800 
 47 H       12.1950    -3.3370     0.3490 H     1 <1>   0.0800 
 48 H       12.2450    -2.3200    -1.0880 H     1 <1>   0.0800 
 49 H       11.1420    -5.1560    -0.9760 H     1 <1>   0.0800 
 50 H       12.6730    -4.7040    -1.6840 H     1 <1>   0.0800 
 51 H       11.1890    -4.1410    -2.4110 H     1 <1>   0.0800 
@<TRIPOS>BOND
  1   1   2  2   
  2   2   3  am  
  3   2   4  1   
  4   3   5  1   
  5   3   6  1   
  6   4   7  1   
  7   4  27  1   
  8   4  28  1   
  9   5   8  ar  
 10   5   9  ar  
 11   6   7  1   
 12   6  29  1   
 13   6  30  1   
 14   7  10  1   
 15   7  31  1   
 16   8  11  ar  
 17   8  32  1   
 18   9  12  ar  
 19   9  33  1   
 20  10  13  2   
 21  10  14  am  
 22  11  15  ar  
 23  11  34  1   
 24  12  15  ar  
 25  12  35  1   
 26  14  16  1   
 27  14  17  1   
 28  15  18  1   
 29  16  19  1   
 30  16  36  1   
 31  16  37  1   
 32  17  20  1   
 33  17  38  1   
 34  17  39  1   
 35  18  40  1   
 36  18  41  1   
 37  18  42  1   
 38  19  21  1   
 39  19  43  1   
 40  19  44  1   
 41  20  21  1   
 42  20  45  1   
 43  20  46  1   
 44  21  22  am  
 45  22  23  2   
 46  22  24  1   
 47  24  25  1   
 48  25  26  1   
 49  25  47  1   
 50  25  48  1   
 51  26  49  1   
 52  26  50  1   
 53  26  51  1   
@<TRIPOS>SUBSTRUCTURE
  1 ****   6 GROUP 4 **** **** 0

# MOE 2024.06 (io_trps.svl 2023.06)
