@<TRIPOS>MOLECULE
[3-(1-Methyl-1H-tetrazol-5-ylsulfanyl)-propyl]-pyridin-4-ylmethyl-amine
35 36 1 0 0 
SMALL
USER_CHARGES


@<TRIPOS>ATOM
  1 S       -0.2140    -0.3440     0.4100 S.3   1 <1>  -0.2860 
  2 C        0.6530     1.1940     0.0750 C.2   1 <1>   0.2420 
  3 C       -1.9390     0.0440    -0.1080 C.3   1 <1>   0.0700 
  4 N        0.1000     2.2370    -0.4070 N.2   1 <1>  -0.3380 
  5 N        1.9390     1.3810     0.2970 N.pl3 1 <1>   0.3140 
  6 C       -2.7910    -1.2040     0.1310 C.3   1 <1>  -0.1600 
  7 N        1.0920     3.1230    -0.4900 N.2   1 <1>   0.0000 
  8 N        2.2030     2.6190    -0.0690 N.2   1 <1>  -0.4180 
  9 C        2.9430     0.4540     0.8400 C.3   1 <1>   0.0160 
 10 C       -4.2390    -0.9540    -0.2770 C.3   1 <1>   0.3430 
 11 N       -5.0270    -2.1850    -0.0300 N.4   1 <1>  -0.9060 
 12 C       -6.4550    -2.0610    -0.3910 C.3   1 <1>   0.4860 
 13 C       -7.0980    -3.3930    -0.0770 C.ar  1 <1>  -0.1440 
 14 C       -7.6480    -3.6620     1.1630 C.ar  1 <1>  -0.1500 
 15 C       -7.1630    -4.4090    -1.0120 C.ar  1 <1>  -0.1500 
 16 C       -8.2090    -4.9050     1.4050 C.ar  1 <1>   0.1600 
 17 C       -7.7480    -5.6170    -0.6670 C.ar  1 <1>   0.1600 
 18 N       -8.2630    -5.8840     0.5200 N.ar  1 <1>  -0.6200 
 19 H       -1.8980     0.3220    -1.1480 H     1 <1>   0.0800 
 20 H       -2.2630     0.8830     0.4860 H     1 <1>   0.0800 
 21 H       -2.7420    -1.4560     1.1770 H     1 <1>   0.0800 
 22 H       -2.3800    -2.0130    -0.4470 H     1 <1>   0.0800 
 23 H        2.6490     0.1520     1.8280 H     1 <1>   0.0800 
 24 H        3.8970     0.9470     0.8820 H     1 <1>   0.0800 
 25 H        3.0110    -0.4070     0.2010 H     1 <1>   0.0800 
 26 H       -4.2800    -0.6910    -1.3230 H     1 <1>   0.0800 
 27 H       -4.6410    -0.1340     0.2980 H     1 <1>   0.0800 
 28 H       -4.9710    -2.4570     0.9590 H     1 <1>   0.4500 
 29 H       -4.6340    -2.9770    -0.5540 H     1 <1>   0.4500 
 30 H       -6.5640    -1.8380    -1.4400 H     1 <1>   0.0800 
 31 H       -6.9260    -1.2800     0.1840 H     1 <1>   0.0800 
 32 H       -7.6570    -2.9300     1.9510 H     1 <1>   0.1500 
 33 H       -6.7760    -4.2900    -2.0080 H     1 <1>   0.1500 
 34 H       -8.6370    -5.1070     2.3740 H     1 <1>   0.1500 
 35 H       -7.7960    -6.4040    -1.4020 H     1 <1>   0.1500 
@<TRIPOS>BOND
  1   1   2  1   
  2   1   3  1   
  3   2   4  2   
  4   2   5  1   
  5   3   6  1   
  6   3  19  1   
  7   3  20  1   
  8   4   7  1   
  9   5   8  1   
 10   5   9  1   
 11   6  10  1   
 12   6  21  1   
 13   6  22  1   
 14   7   8  2   
 15   9  23  1   
 16   9  24  1   
 17   9  25  1   
 18  10  11  1   
 19  10  26  1   
 20  10  27  1   
 21  11  12  1   
 22  11  28  1   
 23  11  29  1   
 24  12  13  1   
 25  12  30  1   
 26  12  31  1   
 27  13  14  ar  
 28  13  15  ar  
 29  14  16  ar  
 30  14  32  1   
 31  15  17  ar  
 32  15  33  1   
 33  16  18  ar  
 34  16  34  1   
 35  17  18  ar  
 36  17  35  1   
@<TRIPOS>SUBSTRUCTURE
  1 ****   6 GROUP 4 **** **** 0

# MOE 2024.06 (io_trps.svl 2023.06)
