@<TRIPOS>MOLECULE
2-(5-Amino-4-ethoxycarbonyl-pyrazol-1-yl)-4-methyl-thiazole-5-carboxylic acid et
38 39 1 0 0 
SMALL
USER_CHARGES


@<TRIPOS>ATOM
  1 S        0.3980     0.0900    -0.8990 S.3   1 <1>  -0.0800 
  2 C       -1.0180     0.9610    -0.3510 C.2   1 <1>   0.3020 
  3 C       -0.2940    -1.4300    -0.3690 C.2   1 <1>  -0.0450 
  4 N       -1.9020     0.1800     0.1700 N.2   1 <1>  -0.5650 
  5 N       -1.0390     2.3670    -0.5400 N.pl3 1 <1>   0.6460 
  6 C       -1.5090    -1.1350     0.1610 C.2   1 <1>   0.0460 
  7 C        0.4830    -2.6230    -0.5750 C.2   1 <1>   0.8050 
  8 N       -2.1160     3.0450    -1.0620 N.2   1 <1>  -0.7070 
  9 C       -0.0220     3.2650    -0.2730 C.2   1 <1>  -0.0680 
 10 C       -2.5210    -2.0920     0.7640 C.3   1 <1>  -0.0590 
 11 O        1.6100    -2.6140    -1.0280 O.2   1 <1>  -0.5700 
 12 O       -0.0630    -3.7970    -0.2490 O.3   1 <1>  -0.4300 
 13 C       -1.7640     4.2820    -1.1050 C.2   1 <1>   0.1390 
 14 N        1.2330     2.9850     0.2790 N.pl3 1 <1>  -0.8840 
 15 C       -0.4680     4.5100    -0.6330 C.2   1 <1>  -0.0860 
 16 C        0.6310    -5.0120    -0.4250 C.3   1 <1>   0.1200 
 17 C        0.1510     5.7960    -0.5820 C.2   1 <1>   0.8060 
 18 C       -0.2770    -6.1450     0.0410 C.3   1 <1>  -0.2400 
 19 O       -0.4110     6.8140    -0.9430 O.2   1 <1>  -0.5700 
 20 O        1.4070     5.8840    -0.1220 O.3   1 <1>  -0.4300 
 21 C        2.0750     7.1240    -0.0460 C.3   1 <1>   0.1200 
 22 C        3.4720     6.8730     0.5140 C.3   1 <1>  -0.2400 
 23 H       -2.1730    -3.1060     0.7730 H     1 <1>   0.0800 
 24 H       -3.4340    -2.0490     0.1980 H     1 <1>   0.0800 
 25 H       -2.7340    -1.7970     1.7750 H     1 <1>   0.0800 
 26 H       -2.4050     5.0710    -1.4690 H     1 <1>   0.1500 
 27 H        1.9330     3.7330     0.4000 H     1 <1>   0.4000 
 28 H        1.5860     2.0340     0.4520 H     1 <1>   0.4000 
 29 H        1.5360    -4.9780     0.1570 H     1 <1>   0.0800 
 30 H        0.8760    -5.1180    -1.4690 H     1 <1>   0.0800 
 31 H       -0.5210    -6.0230     1.0810 H     1 <1>   0.0800 
 32 H        0.2270    -7.0860    -0.0820 H     1 <1>   0.0800 
 33 H       -1.1800    -6.1630    -0.5420 H     1 <1>   0.0800 
 34 H        1.5120     7.7780     0.5980 H     1 <1>   0.0800 
 35 H        2.1260     7.5470    -1.0360 H     1 <1>   0.0800 
 36 H        3.4060     6.4450     1.4980 H     1 <1>   0.0800 
 37 H        4.0060     7.8040     0.5810 H     1 <1>   0.0800 
 38 H        4.0190     6.2120    -0.1340 H     1 <1>   0.0800 
@<TRIPOS>BOND
  1   1   2  1   
  2   1   3  1   
  3   2   4  2   
  4   2   5  1   
  5   3   6  2   
  6   3   7  1   
  7   4   6  1   
  8   5   8  1   
  9   5   9  1   
 10   6  10  1   
 11   7  11  2   
 12   7  12  1   
 13   8  13  2   
 14   9  14  1   
 15   9  15  2   
 16  10  23  1   
 17  10  24  1   
 18  10  25  1   
 19  12  16  1   
 20  13  15  1   
 21  13  26  1   
 22  14  27  1   
 23  14  28  1   
 24  15  17  1   
 25  16  18  1   
 26  16  29  1   
 27  16  30  1   
 28  17  19  2   
 29  17  20  1   
 30  18  31  1   
 31  18  32  1   
 32  18  33  1   
 33  20  21  1   
 34  21  22  1   
 35  21  34  1   
 36  21  35  1   
 37  22  36  1   
 38  22  37  1   
 39  22  38  1   
@<TRIPOS>SUBSTRUCTURE
  1 ****   2 GROUP 4 **** **** 0

# MOE 2024.06 (io_trps.svl 2023.06)
