@<TRIPOS>MOLECULE
7-(4-Fluoro-benzyl)-3-methyl-8-piperazin-1-yl-3,7-dihydro-purine-2,6-dione
47 50 1 0 0 
SMALL
USER_CHARGES


@<TRIPOS>ATOM
  1 F        0.4150    -2.6570    -3.0280 F     1 <1>  -0.1980 
  2 C        0.6710    -3.3570    -1.9580 C.ar  1 <1>   0.1820 
  3 C       -0.2280    -3.3300    -0.9110 C.ar  1 <1>  -0.1580 
  4 C        1.8330    -4.1010    -1.9100 C.ar  1 <1>  -0.1580 
  5 C        0.0460    -4.0820     0.2190 C.ar  1 <1>  -0.1580 
  6 C        2.0970    -4.8510    -0.7760 C.ar  1 <1>  -0.1580 
  7 C        1.2010    -4.8550     0.2900 C.ar  1 <1>  -0.1520 
  8 C        1.4700    -5.7000     1.5260 C.3   1 <1>   0.4920 
  9 N        0.8190    -7.0240     1.3180 N.pl3 1 <1>  -0.7680 
 10 C        1.1670    -7.9910     0.4600 C.cat 1 <1>   1.0680 
 11 C       -0.5560    -7.1920     1.5930 C.2   1 <1>   0.2700 
 12 N        0.0970    -8.7330     0.1660 N.pl3 1 <1>  -0.7040 
 13 N        2.4060    -8.2490    -0.0440 N.pl3 1 <1>  -0.5970 
 14 C       -1.5290    -6.5160     2.4050 C.2   1 <1>   0.6990 
 15 C       -0.9670    -8.2520     0.8640 C.2   1 <1>   0.4200 
 16 C        3.6760    -7.9830     0.7190 C.3   1 <1>   0.1600 
 17 C        2.6220    -8.8150    -1.4240 C.3   1 <1>   0.1600 
 18 O       -1.2710    -5.5520     3.0970 O.2   1 <1>  -0.5750 
 19 N       -2.8060    -6.9940     2.3840 N.am  1 <1>  -0.4960 
 20 N       -2.2680    -8.7320     0.8580 N.am  1 <1>  -0.4420 
 21 C        4.6640    -9.1730     0.6730 C.3   1 <1>   0.3360 
 22 C        3.6250    -9.9930    -1.4460 C.3   1 <1>   0.3360 
 23 C       -3.2020    -8.0680     1.6410 C.2   1 <1>   0.6860 
 24 C       -2.6680    -9.9020     0.0210 C.3   1 <1>   0.0510 
 25 N        4.8960    -9.6660    -0.7230 N.4   1 <1>  -0.9090 
 26 O       -4.3610    -8.4060     1.6910 O.2   1 <1>  -0.5750 
 27 H       -1.1170    -2.7280    -0.9820 H     1 <1>   0.1420 
 28 H        2.5110    -4.0780    -2.7460 H     1 <1>   0.1420 
 29 H       -0.6500    -4.0440     1.0400 H     1 <1>   0.1420 
 30 H        3.0090    -5.4150    -0.7410 H     1 <1>   0.1420 
 31 H        1.0690    -5.2140     2.4000 H     1 <1>   0.0710 
 32 H        2.5270    -5.8030     1.6780 H     1 <1>   0.0710 
 33 H        0.0560    -9.5380    -0.4490 H     1 <1>   0.4440 
 34 H        3.4490    -7.7840     1.7530 H     1 <1>   0.0710 
 35 H        4.1620    -7.1120     0.3140 H     1 <1>   0.0710 
 36 H        2.9980    -8.0310    -2.0610 H     1 <1>   0.0710 
 37 H        1.6900    -9.1420    -1.8530 H     1 <1>   0.0710 
 38 H       -3.5150    -6.5320     2.9510 H     1 <1>   0.3630 
 39 H        4.2670    -9.9760     1.2730 H     1 <1>   0.0710 
 40 H        5.6030    -8.8750     1.1140 H     1 <1>   0.0710 
 41 H        3.8470   -10.2540    -2.4690 H     1 <1>   0.0710 
 42 H        3.1640   -10.8520    -0.9860 H     1 <1>   0.0710 
 43 H       -1.9980   -10.7260     0.1930 H     1 <1>   0.0710 
 44 H       -2.6490    -9.6300    -1.0200 H     1 <1>   0.0710 
 45 H       -3.6650   -10.2270     0.2680 H     1 <1>   0.0710 
 46 H        5.4970   -10.5060    -0.6920 H     1 <1>   0.4440 
 47 H        5.4350    -8.9690    -1.2580 H     1 <1>   0.4440 
@<TRIPOS>BOND
  1   1   2  1   
  2   2   3  ar  
  3   2   4  ar  
  4   3   5  ar  
  5   3  27  1   
  6   4   6  ar  
  7   4  28  1   
  8   5   7  ar  
  9   5  29  1   
 10   6   7  ar  
 11   6  30  1   
 12   7   8  1   
 13   8   9  1   
 14   8  31  1   
 15   8  32  1   
 16   9  10  ar  
 17   9  11  1   
 18  10  12  ar  
 19  10  13  ar  
 20  11  14  1   
 21  11  15  2   
 22  12  15  1   
 23  12  33  1   
 24  13  16  1   
 25  13  17  1   
 26  14  18  2   
 27  14  19  am  
 28  15  20  1   
 29  16  21  1   
 30  16  34  1   
 31  16  35  1   
 32  17  22  1   
 33  17  36  1   
 34  17  37  1   
 35  19  23  am  
 36  19  38  1   
 37  20  23  am  
 38  20  24  1   
 39  21  25  1   
 40  21  39  1   
 41  21  40  1   
 42  22  25  1   
 43  22  41  1   
 44  22  42  1   
 45  23  26  2   
 46  24  43  1   
 47  24  44  1   
 48  24  45  1   
 49  25  46  1   
 50  25  47  1   
@<TRIPOS>SUBSTRUCTURE
  1 ****   9 GROUP 4 **** **** 0

# MOE 2024.06 (io_trps.svl 2023.06)
