@<TRIPOS>MOLECULE
N-Cyclohexyl-2-(4-methoxy-phenoxy)-N-(3-phenyl-[1,2,4]oxadiazol-5-ylmethyl)-acet
58 61 1 0 0 
SMALL
USER_CHARGES


@<TRIPOS>ATOM
  1 O        0.7890    -0.0430     0.7730 O.2   1 <1>  -0.5700 
  2 C        0.5720     1.1180     0.5140 C.2   1 <1>   0.5690 
  3 N        1.5060     1.8870    -0.1430 N.am  1 <1>  -0.6600 
  4 C       -0.7650     1.6860     0.9930 C.3   1 <1>   0.1810 
  5 C        1.2810     3.3370    -0.4630 C.3   1 <1>   0.2200 
  6 C        2.8150     1.2530    -0.5430 C.3   1 <1>   0.3200 
  7 O       -1.6120     2.0090    -0.0990 O.3   1 <1>  -0.3630 
  8 C        1.8600     3.7610    -1.8220 C.3   1 <1>  -0.1600 
  9 C        1.8090     4.2390     0.6620 C.3   1 <1>  -0.1600 
 10 C        4.0020     1.8030     0.2340 C.2   1 <1>   0.2980 
 11 C       -2.7910     2.6530     0.1010 C.ar  1 <1>   0.0820 
 12 C        1.5260     5.2310    -2.1160 C.3   1 <1>  -0.1600 
 13 C        1.4790     5.7110     0.3770 C.3   1 <1>  -0.1600 
 14 O        4.0300     1.6380     1.5300 O.3   1 <1>  -0.0190 
 15 N        4.9910     2.4300    -0.2570 N.2   1 <1>  -0.5650 
 16 C       -3.4650     3.0830    -1.0300 C.ar  1 <1>  -0.1500 
 17 C       -3.3370     2.8970     1.3590 C.ar  1 <1>  -0.1500 
 18 C        2.0280     6.1460    -0.9890 C.3   1 <1>  -0.1600 
 19 N        5.1290     2.2190     1.8980 N.2   1 <1>  -0.4100 
 20 C        5.7010     2.6900     0.8460 C.2   1 <1>   0.4620 
 21 C       -4.6700     3.7560    -0.9220 C.ar  1 <1>  -0.1500 
 22 C       -4.5420     3.5700     1.4670 C.ar  1 <1>  -0.1500 
 23 C        6.9550     3.4250     0.8190 C.ar  1 <1>   0.0540 
 24 C       -5.2150     4.0040     0.3360 C.ar  1 <1>   0.0820 
 25 C        7.6820     3.6600     1.9870 C.ar  1 <1>  -0.1500 
 26 C        7.4840     3.9300    -0.3710 C.ar  1 <1>  -0.1500 
 27 O       -6.3900     4.6560     0.5370 O.3   1 <1>  -0.3620 
 28 C        8.8740     4.3610     1.9720 C.ar  1 <1>  -0.1500 
 29 C        8.6760     4.6320    -0.3940 C.ar  1 <1>  -0.1500 
 30 C       -7.1610     5.1200    -0.5490 C.3   1 <1>   0.0400 
 31 C        9.3740     4.8490     0.7790 C.ar  1 <1>  -0.1500 
 32 H       -0.5940     2.5740     1.5710 H     1 <1>   0.0800 
 33 H       -1.2670     0.9520     1.5970 H     1 <1>   0.0800 
 34 H        0.2220     3.5110    -0.5330 H     1 <1>   0.0800 
 35 H        2.9810     1.4000    -1.5930 H     1 <1>   0.0800 
 36 H        2.7890     0.1900    -0.3860 H     1 <1>   0.0800 
 37 H        1.4470     3.1420    -2.5990 H     1 <1>   0.0800 
 38 H        2.9300     3.6600    -1.8230 H     1 <1>   0.0800 
 39 H        2.8760     4.1450     0.7450 H     1 <1>   0.0800 
 40 H        1.3720     3.9530     1.6010 H     1 <1>   0.0800 
 41 H        0.4600     5.3440    -2.2190 H     1 <1>   0.0800 
 42 H        1.9800     5.5250    -3.0470 H     1 <1>   0.0800 
 43 H        1.9030     6.3320     1.1490 H     1 <1>   0.0800 
 44 H        0.4110     5.8500     0.3930 H     1 <1>   0.0800 
 45 H       -3.0390     2.8870    -1.9980 H     1 <1>   0.1500 
 46 H       -2.8520     2.5710     2.2580 H     1 <1>   0.1500 
 47 H        1.7310     7.1610    -1.1900 H     1 <1>   0.0800 
 48 H        3.1040     6.1190    -0.9630 H     1 <1>   0.0800 
 49 H       -5.1640     4.0750    -1.8180 H     1 <1>   0.1500 
 50 H       -4.9720     3.7640     2.4320 H     1 <1>   0.1500 
 51 H        7.3080     3.2860     2.9250 H     1 <1>   0.1500 
 52 H        6.9550     3.7710    -1.2940 H     1 <1>   0.1500 
 53 H        9.4130     4.5270     2.8880 H     1 <1>   0.1500 
 54 H        9.0600     5.0100    -1.3260 H     1 <1>   0.1500 
 55 H       -8.0410     5.5950    -0.1540 H     1 <1>   0.0800 
 56 H       -7.4410     4.2820    -1.1620 H     1 <1>   0.0800 
 57 H       -6.5820     5.8330    -1.1090 H     1 <1>   0.0800 
 58 H       10.3020     5.3960     0.7640 H     1 <1>   0.1500 
@<TRIPOS>BOND
  1   1   2  2   
  2   2   3  am  
  3   2   4  1   
  4   3   5  1   
  5   3   6  1   
  6   4   7  1   
  7   4  32  1   
  8   4  33  1   
  9   5   8  1   
 10   5   9  1   
 11   5  34  1   
 12   6  10  1   
 13   6  35  1   
 14   6  36  1   
 15   7  11  1   
 16   8  12  1   
 17   8  37  1   
 18   8  38  1   
 19   9  13  1   
 20   9  39  1   
 21   9  40  1   
 22  10  14  1   
 23  10  15  2   
 24  11  16  ar  
 25  11  17  ar  
 26  12  18  1   
 27  12  41  1   
 28  12  42  1   
 29  13  18  1   
 30  13  43  1   
 31  13  44  1   
 32  14  19  1   
 33  15  20  1   
 34  16  21  ar  
 35  16  45  1   
 36  17  22  ar  
 37  17  46  1   
 38  18  47  1   
 39  18  48  1   
 40  19  20  2   
 41  20  23  1   
 42  21  24  ar  
 43  21  49  1   
 44  22  24  ar  
 45  22  50  1   
 46  23  25  ar  
 47  23  26  ar  
 48  24  27  1   
 49  25  28  ar  
 50  25  51  1   
 51  26  29  ar  
 52  26  52  1   
 53  27  30  1   
 54  28  31  ar  
 55  28  53  1   
 56  29  31  ar  
 57  29  54  1   
 58  30  55  1   
 59  30  56  1   
 60  30  57  1   
 61  31  58  1   
@<TRIPOS>SUBSTRUCTURE
  1 ****   5 GROUP 4 **** **** 0

# MOE 2024.06 (io_trps.svl 2023.06)
