@<TRIPOS>MOLECULE
2-[2-(2-Oxo-pyrrolidin-1-yl)-ethoxy]-benzoic acid
32 33 1 0 0 
SMALL
USER_CHARGES


@<TRIPOS>ATOM
  1 O        0.3600    -1.7520     1.7100 O.2   1 <1>  -0.5700 
  2 C        0.6870    -1.9890     0.5710 C.2   1 <1>   0.5690 
  3 N        1.9460    -2.1140     0.1080 N.am  1 <1>  -0.6600 
  4 C       -0.3040    -2.1900    -0.5430 C.3   1 <1>  -0.0990 
  5 C        2.0110    -2.3900    -1.3390 C.3   1 <1>   0.1400 
  6 C        3.2110    -1.8900     0.8500 C.3   1 <1>   0.1400 
  7 C        0.5660    -2.1890    -1.8130 C.3   1 <1>  -0.1600 
  8 C        3.9160    -3.2200     1.1180 C.3   1 <1>   0.1200 
  9 O        5.2540    -2.9620     1.5060 O.3   1 <1>  -0.3630 
 10 C        6.3020    -3.4880     0.8250 C.ar  1 <1>   0.0820 
 11 C        6.4150    -3.5180    -0.5760 C.ar  1 <1>  -0.1790 
 12 C        7.3090    -4.0170     1.6190 C.ar  1 <1>  -0.1500 
 13 C        5.4540    -2.9450    -1.4930 C.2   1 <1>   0.9790 
 14 C        7.5450    -4.1360    -1.1160 C.ar  1 <1>  -0.1500 
 15 C        8.4230    -4.6110     1.0580 C.ar  1 <1>  -0.1500 
 16 O        4.7250    -3.6870    -2.1770 O.co2 1 <1>  -0.9000 
 17 O        5.3330    -1.7160    -1.6300 O.co2 1 <1>  -0.9000 
 18 C        8.5370    -4.6750    -0.3190 C.ar  1 <1>  -0.1500 
 19 H       -1.0300    -1.3980    -0.5520 H     1 <1>   0.0800 
 20 H       -0.7890    -3.1390    -0.4070 H     1 <1>   0.0800 
 21 H        2.3330    -3.4050    -1.5000 H     1 <1>   0.0800 
 22 H        2.6970    -1.7190    -1.8320 H     1 <1>   0.0800 
 23 H        2.9970    -1.4020     1.7840 H     1 <1>   0.0800 
 24 H        3.8470    -1.2500     0.2640 H     1 <1>   0.0800 
 25 H        0.4990    -1.2330    -2.3020 H     1 <1>   0.0800 
 26 H        0.2780    -2.9560    -2.5090 H     1 <1>   0.0800 
 27 H        3.9050    -3.8580     0.2550 H     1 <1>   0.0800 
 28 H        3.4340    -3.7310     1.9300 H     1 <1>   0.0800 
 29 H        7.2060    -3.9630     2.6860 H     1 <1>   0.1500 
 30 H        7.6330    -4.1830    -2.1880 H     1 <1>   0.1500 
 31 H        9.1940    -5.0210     1.6850 H     1 <1>   0.1500 
 32 H        9.3940    -5.1400    -0.7700 H     1 <1>   0.1500 
@<TRIPOS>BOND
  1   1   2  2   
  2   2   3  am  
  3   2   4  1   
  4   3   5  1   
  5   3   6  1   
  6   4   7  1   
  7   4  19  1   
  8   4  20  1   
  9   5   7  1   
 10   5  21  1   
 11   5  22  1   
 12   6   8  1   
 13   6  23  1   
 14   6  24  1   
 15   7  25  1   
 16   7  26  1   
 17   8   9  1   
 18   8  27  1   
 19   8  28  1   
 20   9  10  1   
 21  10  11  ar  
 22  10  12  ar  
 23  11  13  1   
 24  11  14  ar  
 25  12  15  ar  
 26  12  29  1   
 27  13  16  ar  
 28  13  17  ar  
 29  14  18  ar  
 30  14  30  1   
 31  15  18  ar  
 32  15  31  1   
 33  18  32  1   
@<TRIPOS>SUBSTRUCTURE
  1 ****   8 GROUP 4 **** **** 0

# MOE 2024.06 (io_trps.svl 2023.06)
