@<TRIPOS>MOLECULE
8-(2-Methoxy-5-methyl-phenyl)-1,3-dimethyl-7,8-dihydro-1H,6H-imidazo[2,1-f]purin
45 48 1 0 0 
SMALL
USER_CHARGES


@<TRIPOS>ATOM
  1 O        1.3600     2.6290    -2.8410 O.2   1 <1>  -0.5750 
  2 C        2.2590     2.3920    -2.0590 C.2   1 <1>   0.6860 
  3 N        2.5310     3.2820    -1.0230 N.am  1 <1>  -0.4260 
  4 N        3.0050     1.2290    -2.1980 N.am  1 <1>  -0.4420 
  5 C        3.5100     3.0060    -0.0760 C.2   1 <1>   0.6990 
  6 C        1.7240     4.5370    -0.9150 C.3   1 <1>   0.0510 
  7 C        3.9750     0.9620    -1.2510 C.2   1 <1>   0.4200 
  8 C        2.7370     0.2700    -3.3100 C.3   1 <1>   0.0510 
  9 O        3.7300     3.7710     0.8480 O.2   1 <1>  -0.5750 
 10 C        4.2500     1.7920    -0.2180 C.2   1 <1>   0.2700 
 11 N        4.8050    -0.1220    -1.1780 N.pl3 1 <1>  -0.7040 
 12 N        5.2880     1.1770     0.4900 N.pl3 1 <1>  -0.7680 
 13 C        5.5850     0.0560    -0.1210 C.cat 1 <1>   1.0690 
 14 C        6.1590     1.4250     1.6480 C.3   1 <1>   0.3470 
 15 N        6.5800    -0.6240     0.4540 N.pl3 1 <1>  -0.5800 
 16 C        7.0600     0.1660     1.6320 C.3   1 <1>   0.1600 
 17 C        7.1620    -1.8440     0.0440 C.ar  1 <1>   0.3040 
 18 C        7.4670    -2.1180    -1.3000 C.ar  1 <1>   0.0740 
 19 C        7.4420    -2.8100     1.0020 C.ar  1 <1>  -0.1580 
 20 O        7.1980    -1.1650    -2.2430 O.3   1 <1>  -0.3690 
 21 C        8.0340    -3.3410    -1.6430 C.ar  1 <1>  -0.1580 
 22 C        8.0080    -4.0250     0.6570 C.ar  1 <1>  -0.1520 
 23 C        7.8440    -1.1920    -3.5010 C.3   1 <1>   0.0310 
 24 C        8.3020    -4.2840    -0.6680 C.ar  1 <1>  -0.1580 
 25 C        8.3080    -5.0700     1.7180 C.3   1 <1>  -0.1050 
 26 H        0.7870     4.3210    -0.4330 H     1 <1>   0.0710 
 27 H        1.5270     4.9360    -1.8960 H     1 <1>   0.0710 
 28 H        2.2470     5.2860    -0.3470 H     1 <1>   0.0710 
 29 H        2.2480     0.7690    -4.1300 H     1 <1>   0.0710 
 30 H        2.0980    -0.5210    -2.9590 H     1 <1>   0.0710 
 31 H        3.6590    -0.1470    -3.6750 H     1 <1>   0.0710 
 32 H        4.9570    -0.8790    -1.8430 H     1 <1>   0.4440 
 33 H        5.5830     1.4900     2.5570 H     1 <1>   0.0710 
 34 H        6.7340     2.3260     1.5120 H     1 <1>   0.0710 
 35 H        6.9410    -0.3930     2.5440 H     1 <1>   0.0710 
 36 H        8.0950     0.4370     1.5070 H     1 <1>   0.0710 
 37 H        7.2120    -2.6230     2.0340 H     1 <1>   0.1420 
 38 H        8.2760    -3.5880    -2.6610 H     1 <1>   0.1420 
 39 H        7.6250    -0.2730    -4.0140 H     1 <1>   0.0710 
 40 H        7.4720    -2.0240    -4.0730 H     1 <1>   0.0710 
 41 H        8.9070    -1.2780    -3.3500 H     1 <1>   0.0710 
 42 H        8.7440    -5.2260    -0.9480 H     1 <1>   0.1420 
 43 H        7.6910    -4.9240     2.5860 H     1 <1>   0.0710 
 44 H        9.3410    -5.0060     2.0120 H     1 <1>   0.0710 
 45 H        8.1200    -6.0570     1.3340 H     1 <1>   0.0710 
@<TRIPOS>BOND
  1   1   2  2   
  2   2   3  am  
  3   2   4  am  
  4   3   5  am  
  5   3   6  1   
  6   4   7  1   
  7   4   8  1   
  8   5   9  2   
  9   5  10  1   
 10   6  26  1   
 11   6  27  1   
 12   6  28  1   
 13   7  10  2   
 14   7  11  1   
 15   8  29  1   
 16   8  30  1   
 17   8  31  1   
 18  10  12  1   
 19  11  13  ar  
 20  11  32  1   
 21  12  13  ar  
 22  12  14  1   
 23  13  15  ar  
 24  14  16  1   
 25  14  33  1   
 26  14  34  1   
 27  15  16  1   
 28  15  17  1   
 29  16  35  1   
 30  16  36  1   
 31  17  18  ar  
 32  17  19  ar  
 33  18  20  1   
 34  18  21  ar  
 35  19  22  ar  
 36  19  37  1   
 37  20  23  1   
 38  21  24  ar  
 39  21  38  1   
 40  22  24  ar  
 41  22  25  1   
 42  23  39  1   
 43  23  40  1   
 44  23  41  1   
 45  24  42  1   
 46  25  43  1   
 47  25  44  1   
 48  25  45  1   
@<TRIPOS>SUBSTRUCTURE
  1 ****  13 GROUP 4 **** **** 0

# MOE 2024.06 (io_trps.svl 2023.06)
