@<TRIPOS>MOLECULE
2-Methyl-5-(2-oxo-pyrrolidin-1-yl)-N-(2-phenoxy-ethyl)-benzenesulfonamide
48 50 1 0 0 
SMALL
USER_CHARGES


@<TRIPOS>ATOM
  1 S        0.0090    -1.9830    -1.7890 S.o2  1 <1>   1.4470 
  2 O       -0.1880    -3.3590    -1.3960 O.2   1 <1>  -0.6500 
  3 O        0.4070    -1.6770    -3.1440 O.2   1 <1>  -0.6500 
  4 N        1.2520    -1.4830    -0.7780 N.am  1 <1>  -0.9140 
  5 C       -1.4100    -0.9680    -1.2680 C.ar  1 <1>  -0.0090 
  6 C        2.5690    -1.8690    -1.2760 C.3   1 <1>   0.1960 
  7 C       -1.4810     0.4130    -1.4710 C.ar  1 <1>  -0.1430 
  8 C       -2.4730    -1.5860    -0.6190 C.ar  1 <1>  -0.1500 
  9 C        3.6530    -1.4020    -0.3060 C.3   1 <1>   0.1200 
 10 C       -2.5870     1.1240    -1.0280 C.ar  1 <1>  -0.1500 
 11 C       -0.3690     1.1820    -2.1760 C.3   1 <1>  -0.0970 
 12 C       -3.5900    -0.8890    -0.1760 C.ar  1 <1>   0.1170 
 13 O        4.9030    -1.8430    -0.7870 O.3   1 <1>  -0.3630 
 14 C       -3.6260     0.4820    -0.3870 C.ar  1 <1>  -0.1500 
 15 N       -4.6530    -1.5530     0.4610 N.am  1 <1>  -0.4770 
 16 C        6.0520    -1.5630    -0.1230 C.ar  1 <1>   0.0830 
 17 C       -5.3850    -1.1160     1.5280 C.2   1 <1>   0.5690 
 18 C       -5.2220    -2.7970    -0.0970 C.3   1 <1>   0.1400 
 19 C        7.2240    -2.0600    -0.6700 C.ar  1 <1>  -0.1500 
 20 C        6.1070    -0.8190     1.0540 C.ar  1 <1>  -0.1500 
 21 O       -5.1920    -0.1170     2.1760 O.2   1 <1>  -0.5700 
 22 C       -6.5260    -2.0480     1.8320 C.3   1 <1>  -0.0990 
 23 C       -6.2530    -3.2650     0.9380 C.3   1 <1>  -0.1600 
 24 C        8.4410    -1.8220    -0.0560 C.ar  1 <1>  -0.1500 
 25 C        7.3260    -0.5830     1.6670 C.ar  1 <1>  -0.1500 
 26 C        8.4920    -1.0830     1.1130 C.ar  1 <1>  -0.1500 
 27 H        1.0810    -2.0200     0.0700 H     1 <1>   0.4200 
 28 H        2.7430    -1.4100    -2.2360 H     1 <1>   0.0800 
 29 H        2.6180    -2.9400    -1.3860 H     1 <1>   0.0800 
 30 H       -2.4280    -2.6450    -0.4430 H     1 <1>   0.1500 
 31 H        3.5010    -1.8300     0.6690 H     1 <1>   0.0800 
 32 H        3.6690    -0.3280    -0.2550 H     1 <1>   0.0800 
 33 H       -2.6470     2.1880    -1.1770 H     1 <1>   0.1500 
 34 H       -0.2910     0.8650    -3.2010 H     1 <1>   0.0800 
 35 H        0.5740     1.0170    -1.6860 H     1 <1>   0.0800 
 36 H       -0.5650     2.2390    -2.1690 H     1 <1>   0.0800 
 37 H       -4.4740     1.0480    -0.0440 H     1 <1>   0.1500 
 38 H       -4.4610    -3.5430    -0.2430 H     1 <1>   0.0800 
 39 H       -5.6980    -2.5740    -1.0370 H     1 <1>   0.0800 
 40 H        7.1770    -2.6320    -1.5780 H     1 <1>   0.1500 
 41 H        5.2200    -0.4180     1.5060 H     1 <1>   0.1500 
 42 H       -7.4490    -1.5670     1.5640 H     1 <1>   0.0800 
 43 H       -6.5350    -2.3090     2.8740 H     1 <1>   0.0800 
 44 H       -5.8220    -4.0560     1.5260 H     1 <1>   0.0800 
 45 H       -7.1470    -3.6310     0.4670 H     1 <1>   0.0800 
 46 H        9.3470    -2.2110    -0.4880 H     1 <1>   0.1500 
 47 H        7.3700    -0.0080     2.5760 H     1 <1>   0.1500 
 48 H        9.4380    -0.8980     1.5910 H     1 <1>   0.1500 
@<TRIPOS>BOND
  1   1   2  2   
  2   1   3  2   
  3   1   4  am  
  4   1   5  1   
  5   4   6  1   
  6   4  27  1   
  7   5   7  ar  
  8   5   8  ar  
  9   6   9  1   
 10   6  28  1   
 11   6  29  1   
 12   7  10  ar  
 13   7  11  1   
 14   8  12  ar  
 15   8  30  1   
 16   9  13  1   
 17   9  31  1   
 18   9  32  1   
 19  10  14  ar  
 20  10  33  1   
 21  11  34  1   
 22  11  35  1   
 23  11  36  1   
 24  12  14  ar  
 25  12  15  1   
 26  13  16  1   
 27  14  37  1   
 28  15  17  am  
 29  15  18  1   
 30  16  19  ar  
 31  16  20  ar  
 32  17  21  2   
 33  17  22  1   
 34  18  23  1   
 35  18  38  1   
 36  18  39  1   
 37  19  24  ar  
 38  19  40  1   
 39  20  25  ar  
 40  20  41  1   
 41  22  23  1   
 42  22  42  1   
 43  22  43  1   
 44  23  44  1   
 45  23  45  1   
 46  24  26  ar  
 47  24  46  1   
 48  25  26  ar  
 49  25  47  1   
 50  26  48  1   
@<TRIPOS>SUBSTRUCTURE
  1 ****   4 GROUP 4 **** **** 0

# MOE 2024.06 (io_trps.svl 2023.06)
