@<TRIPOS>MOLECULE
3-Cyclohexyl-1-isopropyl-1-(3-p-tolyl-[1,2,4]oxadiazol-5-ylmethyl)-urea
54 56 1 0 0 
SMALL
USER_CHARGES


@<TRIPOS>ATOM
  1 O        0.2690     0.4950     1.5970 O.2   1 <1>  -0.5700 
  2 C        0.4520     1.5940     1.1080 C.2   1 <1>   0.6900 
  3 N        1.6190     2.2730     1.3320 N.am  1 <1>  -0.6600 
  4 N       -0.4970     2.1460     0.3150 N.am  1 <1>  -0.7300 
  5 C        1.7080     3.7550     1.1730 C.3   1 <1>   0.2200 
  6 C        2.8110     1.5030     1.8340 C.3   1 <1>   0.3200 
  7 C       -1.7590     1.5050    -0.0780 C.3   1 <1>   0.2200 
  8 C        2.2780     4.1100    -0.2010 C.3   1 <1>  -0.2400 
  9 C        2.5150     4.4130     2.2940 C.3   1 <1>  -0.2400 
 10 C        3.9770     1.5140     0.8580 C.2   1 <1>   0.2980 
 11 C       -1.6460     1.0410    -1.5330 C.3   1 <1>  -0.1600 
 12 C       -2.9000     2.5120     0.0990 C.3   1 <1>  -0.1600 
 13 O        3.8040     0.9900    -0.3270 O.3   1 <1>  -0.0190 
 14 N        5.1340     1.9930     1.0770 N.2   1 <1>  -0.5650 
 15 C       -2.9760     0.4610    -2.0360 C.3   1 <1>  -0.1600 
 16 C       -4.2330     1.9340    -0.4000 C.3   1 <1>  -0.1600 
 17 N        4.9460     1.1560    -0.9160 N.2   1 <1>  -0.4100 
 18 C        5.7360     1.7470    -0.0910 C.2   1 <1>   0.4620 
 19 C       -4.1230     1.4650    -1.8570 C.3   1 <1>  -0.1600 
 20 C        7.1150     2.1220    -0.3580 C.ar  1 <1>   0.0540 
 21 C        7.7140     1.8530    -1.5890 C.ar  1 <1>  -0.1500 
 22 C        7.9010     2.7680     0.6000 C.ar  1 <1>  -0.1500 
 23 C        9.0250     2.2070    -1.8520 C.ar  1 <1>  -0.1500 
 24 C        9.2120     3.1240     0.3420 C.ar  1 <1>  -0.1500 
 25 C        9.7840     2.8450    -0.8870 C.ar  1 <1>  -0.1440 
 26 C       11.2230     3.2360    -1.1720 C.3   1 <1>  -0.0970 
 27 H       -0.2310     2.9600    -0.2290 H     1 <1>   0.3700 
 28 H        0.7110     4.1600     1.2340 H     1 <1>   0.0800 
 29 H        2.5550     0.4750     2.0110 H     1 <1>   0.0800 
 30 H        3.1320     1.9080     2.7760 H     1 <1>   0.0800 
 31 H       -1.9460     0.6500     0.5520 H     1 <1>   0.0800 
 32 H        3.3230     3.8710    -0.2620 H     1 <1>   0.0800 
 33 H        2.1730     5.1660    -0.3740 H     1 <1>   0.0800 
 34 H        1.7520     3.5850    -0.9770 H     1 <1>   0.0800 
 35 H        3.5560     4.1550     2.2330 H     1 <1>   0.0800 
 36 H        2.1220     4.1250     3.2530 H     1 <1>   0.0800 
 37 H        2.4370     5.4820     2.2110 H     1 <1>   0.0800 
 38 H       -0.8800     0.2890    -1.6050 H     1 <1>   0.0800 
 39 H       -1.3690     1.8730    -2.1570 H     1 <1>   0.0800 
 40 H       -2.6790     3.4080    -0.4530 H     1 <1>   0.0800 
 41 H       -2.9900     2.7650     1.1410 H     1 <1>   0.0800 
 42 H       -3.2010    -0.4380    -1.4860 H     1 <1>   0.0800 
 43 H       -2.8850     0.1960    -3.0750 H     1 <1>   0.0800 
 44 H       -5.0040     2.6810    -0.3170 H     1 <1>   0.0800 
 45 H       -4.5140     1.1010     0.2220 H     1 <1>   0.0800 
 46 H       -5.0510     1.0100    -2.1590 H     1 <1>   0.0800 
 47 H       -3.9530     2.3170    -2.4940 H     1 <1>   0.0800 
 48 H        7.1440     1.3570    -2.3560 H     1 <1>   0.1500 
 49 H        7.4790     2.9950     1.5630 H     1 <1>   0.1500 
 50 H        9.4520     1.9850    -2.8140 H     1 <1>   0.1500 
 51 H        9.7860     3.6220     1.1040 H     1 <1>   0.1500 
 52 H       11.8050     3.2160    -0.2680 H     1 <1>   0.0800 
 53 H       11.2540     4.2290    -1.5830 H     1 <1>   0.0800 
 54 H       11.6660     2.5550    -1.8760 H     1 <1>   0.0800 
@<TRIPOS>BOND
  1   1   2  2   
  2   2   3  am  
  3   2   4  am  
  4   3   5  1   
  5   3   6  1   
  6   4   7  1   
  7   4  27  1   
  8   5   8  1   
  9   5   9  1   
 10   5  28  1   
 11   6  10  1   
 12   6  29  1   
 13   6  30  1   
 14   7  11  1   
 15   7  12  1   
 16   7  31  1   
 17   8  32  1   
 18   8  33  1   
 19   8  34  1   
 20   9  35  1   
 21   9  36  1   
 22   9  37  1   
 23  10  13  1   
 24  10  14  2   
 25  11  15  1   
 26  11  38  1   
 27  11  39  1   
 28  12  16  1   
 29  12  40  1   
 30  12  41  1   
 31  13  17  1   
 32  14  18  1   
 33  15  19  1   
 34  15  42  1   
 35  15  43  1   
 36  16  19  1   
 37  16  44  1   
 38  16  45  1   
 39  17  18  2   
 40  18  20  1   
 41  19  46  1   
 42  19  47  1   
 43  20  21  ar  
 44  20  22  ar  
 45  21  23  ar  
 46  21  48  1   
 47  22  24  ar  
 48  22  49  1   
 49  23  25  ar  
 50  23  50  1   
 51  24  25  ar  
 52  24  51  1   
 53  25  26  1   
 54  26  52  1   
 55  26  53  1   
 56  26  54  1   
@<TRIPOS>SUBSTRUCTURE
  1 ****  13 GROUP 4 **** **** 0

# MOE 2024.06 (io_trps.svl 2023.06)
