@<TRIPOS>MOLECULE
1-Methyl-2-methylsulfanyl-5-(4-methylsulfanyl-phenyl)-5,8-dihydro-1H,6H-pyrido[2
40 42 1 0 0 
SMALL
USER_CHARGES


@<TRIPOS>ATOM
  1 S       -0.1900     0.7660     0.3020 S.3   1 <1>  -0.3710 
  2 C        1.4210     1.5320     0.4050 C.2   1 <1>   0.6410 
  3 C       -1.3600     2.0430     0.9540 C.3   1 <1>  -0.0100 
  4 N        1.4640     2.7200     0.8720 N.2   1 <1>  -0.6610 
  5 N        2.4990     0.7840    -0.0160 N.pl3 1 <1>  -0.5190 
  6 C        2.6890     3.3020     0.9640 C.2   1 <1>   0.7670 
  7 C        3.7480     1.3540     0.0800 C.2   1 <1>   0.2090 
  8 C        2.2770    -0.5750    -0.6050 C.3   1 <1>   0.1290 
  9 O        2.7370     4.3910     1.5220 O.2   1 <1>  -0.5700 
 10 C        3.8510     2.6440     0.4960 C.2   1 <1>  -0.1240 
 11 N        4.8710     0.6040    -0.1840 N.am  1 <1>  -0.5390 
 12 C        5.2060     3.3630     0.5290 C.3   1 <1>   0.2020 
 13 C        6.1380     1.0770    -0.1590 C.2   1 <1>   0.5690 
 14 C        5.1400     4.7340    -0.1470 C.ar  1 <1>  -0.1440 
 15 C        6.3560     2.5710    -0.1330 C.3   1 <1>  -0.0990 
 16 O        7.0750     0.3260    -0.1880 O.2   1 <1>  -0.5700 
 17 C        4.6290     4.8660    -1.4340 C.ar  1 <1>  -0.1500 
 18 C        5.5930     5.8650     0.5210 C.ar  1 <1>  -0.1500 
 19 C        4.5780     6.1070    -2.0440 C.ar  1 <1>  -0.1500 
 20 C        5.5430     7.1100    -0.0840 C.ar  1 <1>  -0.1500 
 21 C        5.0340     7.2220    -1.3670 C.ar  1 <1>   0.1010 
 22 S        4.9350     8.8020    -2.2280 S.3   1 <1>  -0.3310 
 23 C        5.4860    10.0940    -1.0290 C.3   1 <1>  -0.0100 
 24 H       -2.3530     1.6350     0.9140 H     1 <1>   0.0800 
 25 H       -1.2760     2.9170     0.3330 H     1 <1>   0.0800 
 26 H       -1.0740     2.2670     1.9670 H     1 <1>   0.0800 
 27 H        1.5140    -0.5260    -1.3620 H     1 <1>   0.0800 
 28 H        1.9630    -1.2560     0.1680 H     1 <1>   0.0800 
 29 H        3.1650    -0.9600    -1.0700 H     1 <1>   0.0800 
 30 H        4.8020    -0.4080    -0.2570 H     1 <1>   0.3700 
 31 H        5.4530     3.4960     1.5680 H     1 <1>   0.0800 
 32 H        7.2780     2.7870     0.3740 H     1 <1>   0.0800 
 33 H        6.4750     2.8760    -1.1550 H     1 <1>   0.0800 
 34 H        4.2670     4.0060    -1.9690 H     1 <1>   0.1500 
 35 H        5.9820     5.7860     1.5210 H     1 <1>   0.1500 
 36 H        4.1840     6.2150    -3.0380 H     1 <1>   0.1500 
 37 H        5.8970     7.9680     0.4520 H     1 <1>   0.1500 
 38 H        5.3920    11.0480    -1.5150 H     1 <1>   0.0800 
 39 H        6.5110     9.8950    -0.7730 H     1 <1>   0.0800 
 40 H        4.8450    10.0400    -0.1670 H     1 <1>   0.0800 
@<TRIPOS>BOND
  1   1   2  1   
  2   1   3  1   
  3   2   4  2   
  4   2   5  1   
  5   3  24  1   
  6   3  25  1   
  7   3  26  1   
  8   4   6  1   
  9   5   7  1   
 10   5   8  1   
 11   6   9  2   
 12   6  10  1   
 13   7  10  2   
 14   7  11  1   
 15   8  27  1   
 16   8  28  1   
 17   8  29  1   
 18  10  12  1   
 19  11  13  am  
 20  11  30  1   
 21  12  14  1   
 22  12  15  1   
 23  12  31  1   
 24  13  15  1   
 25  13  16  2   
 26  14  17  ar  
 27  14  18  ar  
 28  15  32  1   
 29  15  33  1   
 30  17  19  ar  
 31  17  34  1   
 32  18  20  ar  
 33  18  35  1   
 34  19  21  ar  
 35  19  36  1   
 36  20  21  ar  
 37  20  37  1   
 38  21  22  1   
 39  22  23  1   
 40  23  38  1   
 41  23  39  1   
 42  23  40  1   
@<TRIPOS>SUBSTRUCTURE
  1 ****  10 GROUP 4 **** **** 0

# MOE 2024.06 (io_trps.svl 2023.06)
