@<TRIPOS>MOLECULE
1-(Pyridin-2-ylsulfanyl)-3-(1,2,3,4-tetrahydro-carbazol-9-yl)-propan-2-ol
46 49 1 0 0 
SMALL
USER_CHARGES


@<TRIPOS>ATOM
  1 S        0.2160     0.1990    -0.9610 S.3   1 <1>  -0.3320 
  2 C        0.6540    -1.4520    -0.4270 C.ar  1 <1>   0.4120 
  3 C        1.0250     1.3030     0.2850 C.3   1 <1>   0.0700 
  4 N        1.3470    -1.5480     0.6970 N.ar  1 <1>  -0.6200 
  5 C        0.2390    -2.5090    -1.2180 C.ar  1 <1>  -0.1500 
  6 C        0.6490     2.7640     0.0160 C.3   1 <1>   0.2000 
  7 C        1.6450    -2.7890     1.0480 C.ar  1 <1>   0.1600 
  8 C        0.5590    -3.7930    -0.8320 C.ar  1 <1>  -0.1500 
  9 O        1.2630     3.1920    -1.1530 O.3   1 <1>  -0.6800 
 10 C        1.0800     3.6730     1.1730 C.3   1 <1>   0.0960 
 11 C        1.2830    -3.9230     0.3360 C.ar  1 <1>  -0.1500 
 12 N        0.7240     5.0780     0.8860 N.pl3 1 <1>   0.0480 
 13 C       -0.5420     5.6120     0.9870 C.ar  1 <1>  -0.1520 
 14 C        1.5390     6.0430     0.3550 C.2   1 <1>  -0.3320 
 15 C       -0.5080     6.9230     0.5200 C.ar  1 <1>   0.0000 
 16 C       -1.7410     5.0560     1.4480 C.ar  1 <1>  -0.1500 
 17 C        0.8260     7.1680     0.1330 C.2   1 <1>  -0.1810 
 18 C        3.0240     5.9000     0.0610 C.3   1 <1>   0.0200 
 19 C       -1.6770     7.6910     0.5110 C.ar  1 <1>  -0.1500 
 20 C       -2.8840     5.8210     1.4340 C.ar  1 <1>  -0.1500 
 21 C        1.3990     8.4480    -0.4410 C.3   1 <1>   0.0210 
 22 C        3.5010     7.0560    -0.8370 C.3   1 <1>  -0.1600 
 23 C       -2.8520     7.1400     0.9650 C.ar  1 <1>  -0.1500 
 24 C        2.9370     8.4160    -0.3800 C.3   1 <1>  -0.1600 
 25 H        2.0870     1.1480     0.2200 H     1 <1>   0.0800 
 26 H        0.6680     0.9850     1.2470 H     1 <1>   0.0800 
 27 H       -0.3210    -2.3170    -2.1140 H     1 <1>   0.1500 
 28 H       -0.4170     2.8360    -0.1220 H     1 <1>   0.0800 
 29 H        2.2100    -2.9140     1.9570 H     1 <1>   0.1500 
 30 H        0.2600    -4.6490    -1.4120 H     1 <1>   0.1500 
 31 H        1.0360     4.1340    -1.3100 H     1 <1>   0.4000 
 32 H        2.1400     3.5960     1.3280 H     1 <1>   0.0800 
 33 H        0.5850     3.3750     2.0780 H     1 <1>   0.0800 
 34 H        1.5670    -4.8960     0.6940 H     1 <1>   0.1500 
 35 H       -1.7660     4.0450     1.8090 H     1 <1>   0.1500 
 36 H        3.2270     4.9650    -0.4310 H     1 <1>   0.0800 
 37 H        3.5640     5.9180     0.9910 H     1 <1>   0.0800 
 38 H       -1.6360     8.7010     0.1480 H     1 <1>   0.1500 
 39 H       -3.8160     5.4130     1.7840 H     1 <1>   0.1500 
 40 H        1.0300     9.2930     0.1120 H     1 <1>   0.0800 
 41 H        1.0740     8.5400    -1.4630 H     1 <1>   0.0800 
 42 H        3.1750     6.8680    -1.8450 H     1 <1>   0.0800 
 43 H        4.5760     7.0860    -0.8380 H     1 <1>   0.0800 
 44 H       -3.7590     7.7180     0.9640 H     1 <1>   0.1500 
 45 H        3.2460     8.5960     0.6350 H     1 <1>   0.0800 
 46 H        3.3350     9.2050    -0.9930 H     1 <1>   0.0800 
@<TRIPOS>BOND
  1   1   2  1   
  2   1   3  1   
  3   2   4  ar  
  4   2   5  ar  
  5   3   6  1   
  6   3  25  1   
  7   3  26  1   
  8   4   7  ar  
  9   5   8  ar  
 10   5  27  1   
 11   6   9  1   
 12   6  10  1   
 13   6  28  1   
 14   7  11  ar  
 15   7  29  1   
 16   8  11  ar  
 17   8  30  1   
 18   9  31  1   
 19  10  12  1   
 20  10  32  1   
 21  10  33  1   
 22  11  34  1   
 23  12  13  1   
 24  12  14  1   
 25  13  15  ar  
 26  13  16  ar  
 27  14  17  2   
 28  14  18  1   
 29  15  17  1   
 30  15  19  ar  
 31  16  20  ar  
 32  16  35  1   
 33  17  21  1   
 34  18  22  1   
 35  18  36  1   
 36  18  37  1   
 37  19  23  ar  
 38  19  38  1   
 39  20  23  ar  
 40  20  39  1   
 41  21  24  1   
 42  21  40  1   
 43  21  41  1   
 44  22  24  1   
 45  22  42  1   
 46  22  43  1   
 47  23  44  1   
 48  24  45  1   
 49  24  46  1   
@<TRIPOS>SUBSTRUCTURE
  1 ****   6 GROUP 4 **** **** 0

# MOE 2024.06 (io_trps.svl 2023.06)
