@<TRIPOS>MOLECULE
N-Allyl-N-[3-(4-chloro-phenyl)-[1,2,4]oxadiazol-5-ylmethyl]-2,2-dimethyl-propion
43 44 1 0 0 
SMALL
USER_CHARGES


@<TRIPOS>ATOM
  1 CL      -0.7210     1.2900    -1.3430 Cl    1 <1>  -0.1770 
  2 C       -2.3890     0.8610    -1.0690 C.ar  1 <1>   0.1770 
  3 C       -3.0340     1.3210     0.0620 C.ar  1 <1>  -0.1500 
  4 C       -3.0470     0.0650    -1.9860 C.ar  1 <1>  -0.1500 
  5 C       -4.3580     0.9770     0.2740 C.ar  1 <1>  -0.1500 
  6 C       -4.3710    -0.2720    -1.7630 C.ar  1 <1>  -0.1500 
  7 C       -5.0600     0.1730    -0.6310 C.ar  1 <1>   0.0540 
  8 C       -6.4520    -0.1870    -0.4100 C.2   1 <1>   0.4620 
  9 N       -7.1640    -0.9320    -1.1780 N.2   1 <1>  -0.4100 
 10 N       -7.1500     0.2410     0.6480 N.2   1 <1>  -0.5650 
 11 O       -8.3490    -1.0240    -0.6600 O.3   1 <1>  -0.0190 
 12 C       -8.2770    -0.3030     0.4280 C.2   1 <1>   0.2980 
 13 C       -9.5180    -0.1730     1.3000 C.3   1 <1>   0.3200 
 14 N      -10.5690     0.6680     0.6360 N.am  1 <1>  -0.6600 
 15 C      -11.6380     0.0510     0.0200 C.2   1 <1>   0.5690 
 16 C      -10.2600     2.1200     0.7030 C.3   1 <1>   0.2780 
 17 O      -11.7040    -1.1580     0.0630 O.2   1 <1>  -0.5700 
 18 C      -12.7800     0.7950    -0.7520 C.3   1 <1>   0.0610 
 19 C      -10.6610     2.7070     2.0500 C.2   1 <1>  -0.2880 
 20 C      -12.2620     1.3840    -2.0810 C.3   1 <1>  -0.2400 
 21 C      -13.9110    -0.1910    -1.1360 C.3   1 <1>  -0.2400 
 22 C      -13.4630     1.8970     0.0870 C.3   1 <1>  -0.2400 
 23 C      -11.3580     2.1170     3.0300 C.2   1 <1>  -0.3000 
 24 H       -2.5030     1.9390     0.7640 H     1 <1>   0.1500 
 25 H       -2.5270    -0.2830    -2.8610 H     1 <1>   0.1500 
 26 H       -4.8550     1.3370     1.1580 H     1 <1>   0.1500 
 27 H       -4.8800    -0.8930    -2.4810 H     1 <1>   0.1500 
 28 H       -9.2400     0.2820     2.2340 H     1 <1>   0.0800 
 29 H       -9.8890    -1.1560     1.5260 H     1 <1>   0.0800 
 30 H      -10.7460     2.6600    -0.0830 H     1 <1>   0.0800 
 31 H       -9.2010     2.2620     0.5630 H     1 <1>   0.0800 
 32 H      -10.3120     3.7210     2.1500 H     1 <1>   0.1500 
 33 H      -11.8360     0.6000    -2.6840 H     1 <1>   0.0800 
 34 H      -11.5080     2.1290    -1.9310 H     1 <1>   0.0800 
 35 H      -13.0670     1.8340    -2.6340 H     1 <1>   0.0800 
 36 H      -13.5290    -0.9790    -1.7620 H     1 <1>   0.0800 
 37 H      -14.7020     0.3060    -1.6690 H     1 <1>   0.0800 
 38 H      -14.3270    -0.6420    -0.2520 H     1 <1>   0.0800 
 39 H      -12.8290     2.7440     0.2510 H     1 <1>   0.0800 
 40 H      -13.7530     1.5010     1.0440 H     1 <1>   0.0800 
 41 H      -14.3470     2.2580    -0.4090 H     1 <1>   0.0800 
 42 H      -11.7420     1.1120     2.9890 H     1 <1>   0.1500 
 43 H      -11.6070     2.5970     3.9610 H     1 <1>   0.1500 
@<TRIPOS>BOND
  1   1   2  1   
  2   2   3  ar  
  3   2   4  ar  
  4   3   5  ar  
  5   3  24  1   
  6   4   6  ar  
  7   4  25  1   
  8   5   7  ar  
  9   5  26  1   
 10   6   7  ar  
 11   6  27  1   
 12   7   8  1   
 13   8   9  2   
 14   8  10  1   
 15   9  11  1   
 16  10  12  2   
 17  11  12  1   
 18  12  13  1   
 19  13  14  1   
 20  13  28  1   
 21  13  29  1   
 22  14  15  am  
 23  14  16  1   
 24  15  17  2   
 25  15  18  1   
 26  16  19  1   
 27  16  30  1   
 28  16  31  1   
 29  18  20  1   
 30  18  21  1   
 31  18  22  1   
 32  19  23  2   
 33  19  32  1   
 34  20  33  1   
 35  20  34  1   
 36  20  35  1   
 37  21  36  1   
 38  21  37  1   
 39  21  38  1   
 40  22  39  1   
 41  22  40  1   
 42  22  41  1   
 43  23  42  1   
 44  23  43  1   
@<TRIPOS>SUBSTRUCTURE
  1 ****  12 GROUP 4 **** **** 0

# MOE 2024.06 (io_trps.svl 2023.06)
