@<TRIPOS>MOLECULE
4-(4-Hydroxy-3,5-dimethyl-phenyl)-4-oxo-butyric acid
29 29 1 0 0 
SMALL
USER_CHARGES


@<TRIPOS>ATOM
  1 O       -2.1050    -1.4120     0.8240 O.co2 1 <1>  -0.9000 
  2 C       -1.3620    -0.6330     0.2180 C.2   1 <1>   0.9060 
  3 O       -0.1330    -0.7070     0.2510 O.co2 1 <1>  -0.9000 
  4 C       -2.0090     0.4700    -0.5790 C.3   1 <1>  -0.2660 
  5 C       -2.5890     1.5630     0.3440 C.3   1 <1>  -0.0990 
  6 C       -3.8520     2.2050    -0.2170 C.2   1 <1>   0.4230 
  7 O       -3.7360     3.3090    -0.6920 O.2   1 <1>  -0.5700 
  8 C       -5.1220     1.5060    -0.1490 C.ar  1 <1>   0.0860 
  9 C       -6.2980     2.1410    -0.5610 C.ar  1 <1>  -0.1500 
 10 C       -5.2530     0.1930     0.3190 C.ar  1 <1>  -0.1500 
 11 C       -7.5330     1.5200    -0.5120 C.ar  1 <1>  -0.1440 
 12 C       -6.4720    -0.4570     0.3770 C.ar  1 <1>  -0.1440 
 13 C       -7.6150     0.2150    -0.0400 C.ar  1 <1>   0.0820 
 14 C       -8.7790     2.2620    -0.9730 C.3   1 <1>  -0.0970 
 15 C       -6.5170    -1.8900     0.8930 C.3   1 <1>  -0.0970 
 16 O       -8.8020    -0.4030     0.0130 O.3   1 <1>  -0.5320 
 17 H       -2.7810     0.0170    -1.1700 H     1 <1>   0.0800 
 18 H       -1.2830     0.8940    -1.2460 H     1 <1>   0.0800 
 19 H       -1.8400     2.3170     0.5040 H     1 <1>   0.0800 
 20 H       -2.8180     1.1480     1.3100 H     1 <1>   0.0800 
 21 H       -6.2260     3.1500    -0.9270 H     1 <1>   0.1500 
 22 H       -4.3790    -0.3440     0.6450 H     1 <1>   0.1500 
 23 H       -8.5400     3.2550    -1.3070 H     1 <1>   0.0800 
 24 H       -9.4810     2.3310    -0.1610 H     1 <1>   0.0800 
 25 H       -9.2410     1.7280    -1.7830 H     1 <1>   0.0800 
 26 H       -5.5280    -2.2370     1.1430 H     1 <1>   0.0800 
 27 H       -6.9150    -2.5430     0.1370 H     1 <1>   0.0800 
 28 H       -7.1250    -1.9470     1.7770 H     1 <1>   0.0800 
 29 H       -8.7280    -1.3100     0.3530 H     1 <1>   0.4500 
@<TRIPOS>BOND
  1   1   2  ar  
  2   2   3  ar  
  3   2   4  1   
  4   4   5  1   
  5   4  17  1   
  6   4  18  1   
  7   5   6  1   
  8   5  19  1   
  9   5  20  1   
 10   6   7  2   
 11   6   8  1   
 12   8   9  ar  
 13   8  10  ar  
 14   9  11  ar  
 15   9  21  1   
 16  10  12  ar  
 17  10  22  1   
 18  11  13  ar  
 19  11  14  1   
 20  12  13  ar  
 21  12  15  1   
 22  13  16  1   
 23  14  23  1   
 24  14  24  1   
 25  14  25  1   
 26  15  26  1   
 27  15  27  1   
 28  15  28  1   
 29  16  29  1   
@<TRIPOS>SUBSTRUCTURE
  1 ****  10 GROUP 4 **** **** 0

# MOE 2024.06 (io_trps.svl 2023.06)
