@<TRIPOS>MOLECULE
Morpholine-4-carboxylic acid (3-phenyl-[1,2,4]oxadiazol-5-ylmethyl)-amide
37 39 1 0 0 
SMALL
USER_CHARGES


@<TRIPOS>ATOM
  1 O       -0.0300     0.8390     1.1850 O.2   1 <1>  -0.5700 
  2 C        0.3490     1.5460     0.2710 C.2   1 <1>   0.6900 
  3 N       -0.5390     2.1950    -0.5400 N.am  1 <1>  -0.6600 
  4 N        1.6720     1.6790     0.0420 N.am  1 <1>  -0.7300 
  5 C       -2.0000     1.8870    -0.4940 C.3   1 <1>   0.1400 
  6 C       -0.2320     3.4670    -1.2600 C.3   1 <1>   0.1400 
  7 C        2.7200     1.0260     0.8630 C.3   1 <1>   0.3200 
  8 C       -2.7960     3.1160    -0.0280 C.3   1 <1>   0.1200 
  9 C       -1.1370     4.6050    -0.7540 C.3   1 <1>   0.1200 
 10 C        3.9950     1.8550     0.8830 C.2   1 <1>   0.2980 
 11 O       -2.4840     4.2320    -0.8140 O.3   1 <1>  -0.5600 
 12 O        3.9940     2.9810     1.5480 O.3   1 <1>  -0.0190 
 13 N        5.0860     1.5670     0.3000 N.2   1 <1>  -0.5650 
 14 N        5.1890     3.4500     1.3730 N.2   1 <1>  -0.4100 
 15 C        5.8400     2.6190     0.6390 C.2   1 <1>   0.4620 
 16 C        7.2210     2.7680     0.2070 C.ar  1 <1>   0.0540 
 17 C        7.9810     3.8780     0.5830 C.ar  1 <1>  -0.1500 
 18 C        7.8480     1.8140    -0.5980 C.ar  1 <1>  -0.1500 
 19 C        9.2950     4.0290     0.1780 C.ar  1 <1>  -0.1500 
 20 C        9.1610     1.9580    -1.0080 C.ar  1 <1>  -0.1500 
 21 C        9.8880     3.0680    -0.6200 C.ar  1 <1>  -0.1500 
 22 H        1.9650     2.0430    -0.8610 H     1 <1>   0.3700 
 23 H       -2.1960     1.0620     0.1680 H     1 <1>   0.0800 
 24 H       -2.3310     1.6040    -1.4770 H     1 <1>   0.0800 
 25 H       -0.3980     3.3260    -2.3140 H     1 <1>   0.0800 
 26 H        0.7940     3.7530    -1.1170 H     1 <1>   0.0800 
 27 H        2.9350     0.0570     0.4490 H     1 <1>   0.0800 
 28 H        2.3700     0.8930     1.8720 H     1 <1>   0.0800 
 29 H       -2.5730     3.3410     1.0010 H     1 <1>   0.0800 
 30 H       -3.8520     2.9320    -0.1220 H     1 <1>   0.0800 
 31 H       -1.0110     5.4800    -1.3660 H     1 <1>   0.0800 
 32 H       -0.8940     4.8560     0.2640 H     1 <1>   0.0800 
 33 H        7.5360     4.6360     1.2040 H     1 <1>   0.1500 
 34 H        7.2980     0.9430    -0.9100 H     1 <1>   0.1500 
 35 H        9.8560     4.8960     0.4830 H     1 <1>   0.1500 
 36 H        9.6180     1.2070    -1.6280 H     1 <1>   0.1500 
 37 H       10.9110     3.1840    -0.9370 H     1 <1>   0.1500 
@<TRIPOS>BOND
  1   1   2  2   
  2   2   3  am  
  3   2   4  am  
  4   3   5  1   
  5   3   6  1   
  6   4   7  1   
  7   4  22  1   
  8   5   8  1   
  9   5  23  1   
 10   5  24  1   
 11   6   9  1   
 12   6  25  1   
 13   6  26  1   
 14   7  10  1   
 15   7  27  1   
 16   7  28  1   
 17   8  11  1   
 18   8  29  1   
 19   8  30  1   
 20   9  11  1   
 21   9  31  1   
 22   9  32  1   
 23  10  12  1   
 24  10  13  2   
 25  12  14  1   
 26  13  15  1   
 27  14  15  2   
 28  15  16  1   
 29  16  17  ar  
 30  16  18  ar  
 31  17  19  ar  
 32  17  33  1   
 33  18  20  ar  
 34  18  34  1   
 35  19  21  ar  
 36  19  35  1   
 37  20  21  ar  
 38  20  36  1   
 39  21  37  1   
@<TRIPOS>SUBSTRUCTURE
  1 ****  10 GROUP 4 **** **** 0

# MOE 2024.06 (io_trps.svl 2023.06)
