@<TRIPOS>MOLECULE
8-(2,5-Dimethoxy-phenyl)-1-methyl-3-propyl-7,8-dihydro-1H,6H-imidazo[2,1-f]purin
52 55 1 0 0 
SMALL
USER_CHARGES


@<TRIPOS>ATOM
  1 O        1.2410     2.4420    -2.7910 O.2   1 <1>  -0.5740 
  2 C        1.9750     2.1520    -1.8680 C.2   1 <1>   0.6860 
  3 N        2.0000     2.9370    -0.7180 N.am  1 <1>  -0.4250 
  4 N        2.7940     1.0340    -1.9690 N.am  1 <1>  -0.4410 
  5 C        2.8590     2.6470     0.3340 C.2   1 <1>   0.7000 
  6 C        1.0720     4.1010    -0.6040 C.3   1 <1>   0.1330 
  7 C        3.6500     0.7560    -0.9220 C.2   1 <1>   0.4210 
  8 C        2.7610     0.1700    -3.1860 C.3   1 <1>   0.0530 
  9 O        2.8950     3.3400     1.3370 O.2   1 <1>  -0.5740 
 10 C        3.7120     1.5080     0.2020 C.2   1 <1>   0.2710 
 11 C       -0.2520     3.6560     0.0270 C.3   1 <1>  -0.1670 
 12 N        4.5630    -0.2580    -0.8240 N.pl3 1 <1>  -0.7030 
 13 N        4.6990     0.9140     0.9950 N.pl3 1 <1>  -0.7670 
 14 C       -1.2250     4.8320     0.1540 C.3   1 <1>  -0.2460 
 15 C        5.1790    -0.1160     0.3420 C.cat 1 <1>   1.0690 
 16 C        5.3910     1.1340     2.2740 C.3   1 <1>   0.3480 
 17 N        6.1550    -0.7580     0.9910 N.pl3 1 <1>  -0.5800 
 18 C        6.4060    -0.0350     2.2790 C.3   1 <1>   0.1610 
 19 C        6.9260    -1.8600     0.5560 C.ar  1 <1>   0.3050 
 20 C        7.4460    -1.9390    -0.7480 C.ar  1 <1>   0.0750 
 21 C        7.1770    -2.8960     1.4460 C.ar  1 <1>  -0.1570 
 22 O        7.2010    -0.9110    -1.6160 O.3   1 <1>  -0.3680 
 23 C        8.1950    -3.0480    -1.1280 C.ar  1 <1>  -0.1570 
 24 C        7.9290    -3.9980     1.0610 C.ar  1 <1>   0.0750 
 25 C        8.0420    -0.7040    -2.7360 C.3   1 <1>   0.0320 
 26 C        8.4320    -4.0670    -0.2250 C.ar  1 <1>  -0.1570 
 27 O        8.2110    -5.0450     1.8770 O.3   1 <1>  -0.3680 
 28 C        7.7330    -5.1050     3.2030 C.3   1 <1>   0.0320 
 29 H        0.8870     4.5210    -1.5790 H     1 <1>   0.0730 
 30 H        1.5200     4.8730    -0.0020 H     1 <1>   0.0730 
 31 H        1.7990     0.2330    -3.6670 H     1 <1>   0.0730 
 32 H        2.9350    -0.8590    -2.9240 H     1 <1>   0.0730 
 33 H        3.5140     0.4960    -3.8820 H     1 <1>   0.0730 
 34 H       -0.0690     3.2500     1.0060 H     1 <1>   0.0730 
 35 H       -0.7060     2.8960    -0.5870 H     1 <1>   0.0730 
 36 H        4.8730    -0.9250    -1.5280 H     1 <1>   0.4450 
 37 H       -0.8060     5.6030     0.7780 H     1 <1>   0.0730 
 38 H       -2.1470     4.5000     0.5970 H     1 <1>   0.0730 
 39 H       -1.4430     5.2480    -0.8140 H     1 <1>   0.0730 
 40 H        4.7030     1.0670     3.1010 H     1 <1>   0.0730 
 41 H        5.8870     2.0900     2.2850 H     1 <1>   0.0730 
 42 H        6.2320    -0.6810     3.1230 H     1 <1>   0.0730 
 43 H        7.4170     0.3360     2.3120 H     1 <1>   0.0730 
 44 H        6.7760    -2.8410     2.4380 H     1 <1>   0.1430 
 45 H        8.6020    -3.1470    -2.1180 H     1 <1>   0.1430 
 46 H        7.7950     0.2460    -3.1750 H     1 <1>   0.0730 
 47 H        7.8760    -1.4880    -3.4530 H     1 <1>   0.0730 
 48 H        9.0680    -0.6960    -2.4100 H     1 <1>   0.0730 
 49 H        9.0120    -4.9270    -0.5130 H     1 <1>   0.1430 
 50 H        8.0780    -6.0260     3.6390 H     1 <1>   0.0730 
 51 H        6.6580    -5.0900     3.1900 H     1 <1>   0.0730 
 52 H        8.1280    -4.2720     3.7560 H     1 <1>   0.0730 
@<TRIPOS>BOND
  1   1   2  2   
  2   2   3  am  
  3   2   4  am  
  4   3   5  am  
  5   3   6  1   
  6   4   7  1   
  7   4   8  1   
  8   5   9  2   
  9   5  10  1   
 10   6  11  1   
 11   6  29  1   
 12   6  30  1   
 13   7  10  2   
 14   7  12  1   
 15   8  31  1   
 16   8  32  1   
 17   8  33  1   
 18  10  13  1   
 19  11  14  1   
 20  11  34  1   
 21  11  35  1   
 22  12  15  ar  
 23  12  36  1   
 24  13  15  ar  
 25  13  16  1   
 26  14  37  1   
 27  14  38  1   
 28  14  39  1   
 29  15  17  ar  
 30  16  18  1   
 31  16  40  1   
 32  16  41  1   
 33  17  18  1   
 34  17  19  1   
 35  18  42  1   
 36  18  43  1   
 37  19  20  ar  
 38  19  21  ar  
 39  20  22  1   
 40  20  23  ar  
 41  21  24  ar  
 42  21  44  1   
 43  22  25  1   
 44  23  26  ar  
 45  23  45  1   
 46  24  26  ar  
 47  24  27  1   
 48  25  46  1   
 49  25  47  1   
 50  25  48  1   
 51  26  49  1   
 52  27  28  1   
 53  28  50  1   
 54  28  51  1   
 55  28  52  1   
@<TRIPOS>SUBSTRUCTURE
  1 ****  15 GROUP 4 **** **** 0

# MOE 2024.06 (io_trps.svl 2023.06)
