@<TRIPOS>MOLECULE
5-(5,7-Dimethyl-6-oxo-1,3-diaza-tricyclo[3.3.1.1*3,7*]dec-2-yl)-6-methyl-1H-pyri
43 46 1 0 0 
SMALL
USER_CHARGES


@<TRIPOS>ATOM
  1 O       -1.3610    -0.5260    -1.1210 O.2   1 <1>  -0.5700 
  2 C       -2.0050     0.3970    -0.6880 C.2   1 <1>   0.6900 
  3 N       -1.5410     1.6630    -0.7310 N.am  1 <1>  -0.4900 
  4 N       -3.2270     0.1940    -0.1210 N.am  1 <1>  -0.5390 
  5 C       -2.2350     2.7050    -0.2050 C.2   1 <1>   0.6160 
  6 C       -4.0410     1.2110     0.3480 C.2   1 <1>  -0.0290 
  7 O       -1.6350     3.7490    -0.0470 O.2   1 <1>  -0.5700 
  8 C       -3.5890     2.4990     0.2300 C.2   1 <1>  -0.1240 
  9 C       -5.3260     0.6550     0.9470 C.3   1 <1>  -0.1020 
 10 C       -4.2360     3.8540     0.5220 C.3   1 <1>   0.8310 
 11 N       -5.6110     3.8650     1.0930 N.4   1 <1>  -0.9590 
 12 N       -4.3220     4.6940    -0.6810 N.3   1 <1>  -0.8100 
 13 C       -6.6670     3.4040     0.1140 C.3   1 <1>   0.3430 
 14 C       -5.9210     5.2660     1.5520 C.3   1 <1>   0.3430 
 15 C       -5.2760     4.2460    -1.7120 C.3   1 <1>   0.1100 
 16 C       -4.5440     6.1090    -0.3330 C.3   1 <1>   0.1100 
 17 C       -6.6890     4.2950    -1.1260 C.3   1 <1>   0.0610 
 18 C       -5.9110     6.2330     0.3570 C.3   1 <1>   0.0610 
 19 C       -6.9670     5.7070    -0.6130 C.2   1 <1>   0.4480 
 20 C       -7.7240     3.7910    -2.1520 C.3   1 <1>  -0.2400 
 21 C       -6.1600     7.6840     0.8150 C.3   1 <1>  -0.2400 
 22 O       -7.9570     6.3130    -0.8880 O.2   1 <1>  -0.5700 
 23 H       -0.5920     1.8140    -1.0560 H     1 <1>   0.3700 
 24 H       -3.4970    -0.7930    -0.0860 H     1 <1>   0.3700 
 25 H       -5.1020    -0.2320     1.5170 H     1 <1>   0.0800 
 26 H       -6.0110     0.3740     0.1670 H     1 <1>   0.0800 
 27 H       -5.8010     1.3320     1.6260 H     1 <1>   0.0800 
 28 H       -3.5760     4.3520     1.2170 H     1 <1>   0.0800 
 29 H       -5.5850     3.2430     1.9060 H     1 <1>   0.4500 
 30 H       -7.6390     3.4250     0.5820 H     1 <1>   0.0800 
 31 H       -6.4700     2.3980    -0.2060 H     1 <1>   0.0800 
 32 H       -5.1890     5.5880     2.2750 H     1 <1>   0.0800 
 33 H       -6.8920     5.2950     2.0210 H     1 <1>   0.0800 
 34 H       -5.2080     4.8930    -2.5730 H     1 <1>   0.0800 
 35 H       -5.0270     3.2480    -2.0330 H     1 <1>   0.0800 
 36 H       -4.5190     6.7130    -1.2270 H     1 <1>   0.0800 
 37 H       -3.7540     6.4530     0.3140 H     1 <1>   0.0800 
 38 H       -7.4980     2.7910    -2.4780 H     1 <1>   0.0800 
 39 H       -7.7310     4.4350    -3.0160 H     1 <1>   0.0800 
 40 H       -8.7150     3.8010    -1.7290 H     1 <1>   0.0800 
 41 H       -5.3960     8.0160     1.4970 H     1 <1>   0.0800 
 42 H       -7.1170     7.7680     1.3020 H     1 <1>   0.0800 
 43 H       -6.1670     8.3450    -0.0350 H     1 <1>   0.0800 
@<TRIPOS>BOND
  1   1   2  2   
  2   2   3  am  
  3   2   4  am  
  4   3   5  am  
  5   3  23  1   
  6   4   6  1   
  7   4  24  1   
  8   5   7  2   
  9   5   8  1   
 10   6   8  2   
 11   6   9  1   
 12   8  10  1   
 13   9  25  1   
 14   9  26  1   
 15   9  27  1   
 16  10  11  1   
 17  10  12  1   
 18  10  28  1   
 19  11  13  1   
 20  11  14  1   
 21  11  29  1   
 22  12  15  1   
 23  12  16  1   
 24  13  17  1   
 25  13  30  1   
 26  13  31  1   
 27  14  18  1   
 28  14  32  1   
 29  14  33  1   
 30  15  17  1   
 31  15  34  1   
 32  15  35  1   
 33  16  18  1   
 34  16  36  1   
 35  16  37  1   
 36  17  19  1   
 37  17  20  1   
 38  18  19  1   
 39  18  21  1   
 40  19  22  2   
 41  20  38  1   
 42  20  39  1   
 43  20  40  1   
 44  21  41  1   
 45  21  42  1   
 46  21  43  1   
@<TRIPOS>SUBSTRUCTURE
  1 ****  10 GROUP 4 **** **** 0

# MOE 2024.06 (io_trps.svl 2023.06)
