@<TRIPOS>MOLECULE
7-[3-(4-Chloro-phenoxy)-2-hydroxy-propyl]-3-methyl-8-piperazin-1-yl-3,7-dihydro-
55 58 1 0 0 
SMALL
USER_CHARGES


@<TRIPOS>ATOM
  1 CL      -2.3350     3.5920     1.6590 Cl    1 <1>  -0.1840 
  2 C       -3.6040     2.5260     1.1100 C.ar  1 <1>   0.1700 
  3 C       -3.5540     1.1850     1.4420 C.ar  1 <1>  -0.1570 
  4 C       -4.6400     3.0390     0.3520 C.ar  1 <1>  -0.1570 
  5 C       -4.5630     0.3440     1.0070 C.ar  1 <1>  -0.1570 
  6 C       -5.6480     2.1960    -0.0820 C.ar  1 <1>  -0.1570 
  7 C       -5.6140     0.8420     0.2480 C.ar  1 <1>   0.0750 
  8 O       -6.5680    -0.0450    -0.1290 O.3   1 <1>  -0.3680 
  9 C       -7.7720     0.4000    -0.7210 C.3   1 <1>   0.1130 
 10 C       -8.6890    -0.8130    -0.8710 C.3   1 <1>   0.1930 
 11 O       -9.9270    -0.4040    -1.3590 O.3   1 <1>  -0.6840 
 12 C       -8.8320    -1.5860     0.4650 C.3   1 <1>   0.3480 
 13 N       -9.9020    -2.6370     0.4240 N.pl3 1 <1>  -0.7670 
 14 C       -9.8860    -3.9650     0.2110 C.cat 1 <1>   1.0690 
 15 C      -11.2480    -2.2690     0.6570 C.2   1 <1>   0.2710 
 16 N      -11.1320    -4.4380     0.3170 N.pl3 1 <1>  -0.7040 
 17 N       -8.8220    -4.7770    -0.0690 N.pl3 1 <1>  -0.5960 
 18 C      -11.9430    -1.0400     0.9280 C.2   1 <1>   0.6990 
 19 C      -11.9740    -3.4050     0.5830 C.2   1 <1>   0.4210 
 20 C       -8.9260    -6.2800     0.0480 C.3   1 <1>   0.1610 
 21 C       -7.4860    -4.2760    -0.5600 C.3   1 <1>   0.1610 
 22 O      -11.3950     0.0450     1.0150 O.2   1 <1>  -0.5740 
 23 N      -13.2960    -1.1090     1.0930 N.am  1 <1>  -0.4950 
 24 N      -13.3500    -3.4590     0.7560 N.am  1 <1>  -0.4410 
 25 C       -7.5710    -6.9620     0.3540 C.3   1 <1>   0.3370 
 26 C       -6.6940    -5.3240    -1.3780 C.3   1 <1>   0.3370 
 27 C      -14.0130    -2.2660     1.0090 C.2   1 <1>   0.6860 
 28 C      -14.1050    -4.7430     0.6510 C.3   1 <1>   0.0530 
 29 N       -6.5010    -6.6210    -0.6440 N.4   1 <1>  -0.9080 
 30 O      -15.2100    -2.2120     1.1590 O.2   1 <1>  -0.5740 
 31 H       -2.7360     0.8110     2.0320 H     1 <1>   0.1430 
 32 H       -4.6510     4.0860     0.1080 H     1 <1>   0.1430 
 33 H       -4.5350    -0.7000     1.2590 H     1 <1>   0.1430 
 34 H       -6.4410     2.6140    -0.6740 H     1 <1>   0.1430 
 35 H       -7.5430     0.8260    -1.6820 H     1 <1>   0.0730 
 36 H       -8.2130     1.1370    -0.0710 H     1 <1>   0.0730 
 37 H       -8.2690    -1.4530    -1.6240 H     1 <1>   0.0730 
 38 H      -10.3290     0.2820    -0.7740 H     1 <1>   0.3950 
 39 H       -9.0540    -0.8820     1.2490 H     1 <1>   0.0730 
 40 H       -7.8890    -2.0270     0.7290 H     1 <1>   0.0730 
 41 H      -11.4370    -5.3930     0.1620 H     1 <1>   0.4450 
 42 H       -9.3200    -6.6820    -0.8710 H     1 <1>   0.0730 
 43 H       -9.6100    -6.5370     0.8400 H     1 <1>   0.0730 
 44 H       -6.8880    -3.9700     0.2820 H     1 <1>   0.0730 
 45 H       -7.6350    -3.4220    -1.1940 H     1 <1>   0.0730 
 46 H      -13.8150    -0.2530     1.2770 H     1 <1>   0.3640 
 47 H       -7.7050    -8.0320     0.3880 H     1 <1>   0.0730 
 48 H       -7.2530    -6.6490     1.3350 H     1 <1>   0.0730 
 49 H       -5.7330    -4.9160    -1.6510 H     1 <1>   0.0730 
 50 H       -7.2320    -5.5110    -2.2930 H     1 <1>   0.0730 
 51 H      -14.1460    -5.0590    -0.3770 H     1 <1>   0.0730 
 52 H      -15.1140    -4.6230     1.0090 H     1 <1>   0.0730 
 53 H      -13.6300    -5.5030     1.2460 H     1 <1>   0.0730 
 54 H       -6.4170    -7.3830    -1.3360 H     1 <1>   0.4450 
 55 H       -5.5900    -6.6110    -0.1590 H     1 <1>   0.4450 
@<TRIPOS>BOND
  1   1   2  1   
  2   2   3  ar  
  3   2   4  ar  
  4   3   5  ar  
  5   3  31  1   
  6   4   6  ar  
  7   4  32  1   
  8   5   7  ar  
  9   5  33  1   
 10   6   7  ar  
 11   6  34  1   
 12   7   8  1   
 13   8   9  1   
 14   9  10  1   
 15   9  35  1   
 16   9  36  1   
 17  10  11  1   
 18  10  12  1   
 19  10  37  1   
 20  11  38  1   
 21  12  13  1   
 22  12  39  1   
 23  12  40  1   
 24  13  14  ar  
 25  13  15  1   
 26  14  16  ar  
 27  14  17  ar  
 28  15  18  1   
 29  15  19  2   
 30  16  19  1   
 31  16  41  1   
 32  17  20  1   
 33  17  21  1   
 34  18  22  2   
 35  18  23  am  
 36  19  24  1   
 37  20  25  1   
 38  20  42  1   
 39  20  43  1   
 40  21  26  1   
 41  21  44  1   
 42  21  45  1   
 43  23  27  am  
 44  23  46  1   
 45  24  27  am  
 46  24  28  1   
 47  25  29  1   
 48  25  47  1   
 49  25  48  1   
 50  26  29  1   
 51  26  49  1   
 52  26  50  1   
 53  27  30  2   
 54  28  51  1   
 55  28  52  1   
 56  28  53  1   
 57  29  54  1   
 58  29  55  1   
@<TRIPOS>SUBSTRUCTURE
  1 ****  12 GROUP 4 **** **** 0

# MOE 2024.06 (io_trps.svl 2023.06)
