@<TRIPOS>MOLECULE
2,4,6-Tricyclopentyl-[1,3,5]trioxane
51 54 1 0 0 
SMALL
USER_CHARGES


@<TRIPOS>ATOM
  1 O       -0.0070     0.3190     0.0450 O.3   1 <1>  -0.5600 
  2 C        0.3680     1.4220     0.8140 C.3   1 <1>   0.4800 
  3 C       -1.3560     0.2550    -0.2960 C.3   1 <1>   0.4800 
  4 O       -0.5210     2.4480     0.5300 O.3   1 <1>  -0.5600 
  5 C        1.8010     1.8700     0.4690 C.3   1 <1>  -0.0800 
  6 O       -2.0660     0.7940     0.7690 O.3   1 <1>  -0.5600 
  7 C       -1.7580    -1.2090    -0.5470 C.3   1 <1>  -0.0800 
  8 C       -1.8140     2.1520     0.9590 C.3   1 <1>   0.4800 
  9 C        2.0210     2.2940    -0.9860 C.3   1 <1>  -0.1600 
 10 C        2.8710     0.7980     0.6900 C.3   1 <1>  -0.1600 
 11 C       -3.2390    -1.4080    -0.8790 C.3   1 <1>  -0.1600 
 12 C       -1.5270    -2.1640     0.6270 C.3   1 <1>  -0.1600 
 13 C       -2.8290     3.0040     0.1780 C.3   1 <1>  -0.0800 
 14 C        3.5340     2.2160    -1.1990 C.3   1 <1>  -0.1600 
 15 C        4.0800     1.2810    -0.1120 C.3   1 <1>  -0.1600 
 16 C       -3.4920    -2.8990    -0.6510 C.3   1 <1>  -0.1600 
 17 C       -2.4240    -3.3710     0.3440 C.3   1 <1>  -0.1600 
 18 C       -2.6850     4.5070     0.4200 C.3   1 <1>  -0.1600 
 19 C       -4.2870     2.7270     0.5510 C.3   1 <1>  -0.1600 
 20 C       -4.0290     5.1060     0.0050 C.3   1 <1>  -0.1600 
 21 C       -5.0580     3.9740     0.1140 C.3   1 <1>  -0.1600 
 22 H        0.2870     1.1600     1.8560 H     1 <1>   0.0800 
 23 H       -1.5210     0.8540    -1.1750 H     1 <1>   0.0800 
 24 H        2.0420     2.7060     1.1020 H     1 <1>   0.0800 
 25 H       -1.1850    -1.5640    -1.3860 H     1 <1>   0.0800 
 26 H       -1.8820     2.3560     2.0140 H     1 <1>   0.0800 
 27 H        1.6320     3.2790    -1.1770 H     1 <1>   0.0800 
 28 H        1.5350     1.5930    -1.6430 H     1 <1>   0.0800 
 29 H        2.5340    -0.1410     0.2840 H     1 <1>   0.0800 
 30 H        3.1030     0.6670     1.7320 H     1 <1>   0.0800 
 31 H       -3.4720    -1.1070    -1.8850 H     1 <1>   0.0800 
 32 H       -3.8450    -0.8420    -0.1920 H     1 <1>   0.0800 
 33 H       -1.8450    -1.6940     1.5420 H     1 <1>   0.0800 
 34 H       -0.4910    -2.4380     0.7180 H     1 <1>   0.0800 
 35 H       -2.7050     2.8200    -0.8740 H     1 <1>   0.0800 
 36 H        3.9710     3.1940    -1.0870 H     1 <1>   0.0800 
 37 H        3.7600     1.8450    -2.1850 H     1 <1>   0.0800 
 38 H        4.6140     0.4500    -0.5400 H     1 <1>   0.0800 
 39 H        4.7470     1.8300     0.5300 H     1 <1>   0.0800 
 40 H       -3.3760    -3.4320    -1.5790 H     1 <1>   0.0800 
 41 H       -4.4860    -3.0680    -0.2740 H     1 <1>   0.0800 
 42 H       -2.8710    -3.7320     1.2550 H     1 <1>   0.0800 
 43 H       -1.8440    -4.1640    -0.0960 H     1 <1>   0.0800 
 44 H       -1.8650     4.9240    -0.1400 H     1 <1>   0.0800 
 45 H       -2.5220     4.6920     1.4690 H     1 <1>   0.0800 
 46 H       -4.3710     2.6140     1.6190 H     1 <1>   0.0800 
 47 H       -4.6570     1.8340     0.0760 H     1 <1>   0.0800 
 48 H       -3.9750     5.4440    -1.0150 H     1 <1>   0.0800 
 49 H       -4.2910     5.9390     0.6340 H     1 <1>   0.0800 
 50 H       -5.8320     4.2120     0.8240 H     1 <1>   0.0800 
 51 H       -5.5110     3.8050    -0.8490 H     1 <1>   0.0800 
@<TRIPOS>BOND
  1   1   2  1   
  2   1   3  1   
  3   2   4  1   
  4   2   5  1   
  5   2  22  1   
  6   3   6  1   
  7   3   7  1   
  8   3  23  1   
  9   4   8  1   
 10   5   9  1   
 11   5  10  1   
 12   5  24  1   
 13   6   8  1   
 14   7  11  1   
 15   7  12  1   
 16   7  25  1   
 17   8  13  1   
 18   8  26  1   
 19   9  14  1   
 20   9  27  1   
 21   9  28  1   
 22  10  15  1   
 23  10  29  1   
 24  10  30  1   
 25  11  16  1   
 26  11  31  1   
 27  11  32  1   
 28  12  17  1   
 29  12  33  1   
 30  12  34  1   
 31  13  18  1   
 32  13  19  1   
 33  13  35  1   
 34  14  15  1   
 35  14  36  1   
 36  14  37  1   
 37  15  38  1   
 38  15  39  1   
 39  16  17  1   
 40  16  40  1   
 41  16  41  1   
 42  17  42  1   
 43  17  43  1   
 44  18  20  1   
 45  18  44  1   
 46  18  45  1   
 47  19  21  1   
 48  19  46  1   
 49  19  47  1   
 50  20  21  1   
 51  20  48  1   
 52  20  49  1   
 53  21  50  1   
 54  21  51  1   
@<TRIPOS>SUBSTRUCTURE
  1 ****   3 GROUP 4 **** **** 0

# MOE 2024.06 (io_trps.svl 2023.06)
