@<TRIPOS>MOLECULE
3-Allyl-8-(2,5-dimethoxy-phenyl)-1,6-dimethyl-5,6,7,8-tetrahydro-1H-1,3,4b,8,9-p
56 59 1 0 0 
SMALL
USER_CHARGES


@<TRIPOS>ATOM
  1 O        0.0250     1.6040     1.0000 O.2   1 <1>  -0.5740 
  2 C        1.1730     1.7530     0.6340 C.2   1 <1>   0.6870 
  3 N        1.5740     2.9450     0.0420 N.am  1 <1>  -0.4250 
  4 N        2.0820     0.7140     0.7880 N.am  1 <1>  -0.4410 
  5 C        2.8520     3.1050    -0.4670 C.2   1 <1>   0.7000 
  6 C        0.6450     4.1040     0.0390 C.3   1 <1>   0.2730 
  7 C        3.3560     0.8840     0.2800 C.2   1 <1>   0.4210 
  8 C        1.6860    -0.5640     1.4500 C.3   1 <1>   0.0530 
  9 O        3.1840     4.1390    -1.0230 O.2   1 <1>  -0.5740 
 10 C        3.7690     2.0160    -0.3280 C.2   1 <1>   0.2710 
 11 C        0.9620     4.9880     1.2310 C.2   1 <1>  -0.2940 
 12 N        4.3900    -0.0010     0.2940 N.pl3 1 <1>  -0.7030 
 13 N        5.1080     1.8000    -0.6850 N.pl3 1 <1>  -0.7670 
 14 C        0.1870     5.1240     2.3110 C.2   1 <1>  -0.3060 
 15 C        5.4380     0.5770    -0.2830 C.cat 1 <1>   1.0690 
 16 C        6.0240     2.7500    -1.3510 C.3   1 <1>   0.3490 
 17 N        6.6640     0.0480    -0.4660 N.pl3 1 <1>  -0.5790 
 18 C        7.2180     1.9810    -1.9450 C.3   1 <1>  -0.0870 
 19 C        6.9910    -1.2930    -0.1660 C.ar  1 <1>   0.3050 
 20 C        7.7600     0.9350    -0.9520 C.3   1 <1>   0.1610 
 21 C        8.3340     2.9450    -2.3740 C.3   1 <1>  -0.2460 
 22 C        6.8480    -1.8290     1.1220 C.ar  1 <1>   0.0760 
 23 C        7.4620    -2.1090    -1.1820 C.ar  1 <1>  -0.1570 
 24 O        6.3630    -1.0190     2.1110 O.3   1 <1>  -0.3680 
 25 C        7.1850    -3.1570     1.3630 C.ar  1 <1>  -0.1570 
 26 C        7.7990    -3.4280    -0.9440 C.ar  1 <1>   0.0760 
 27 C        6.6470    -1.3020     3.4680 C.3   1 <1>   0.0330 
 28 C        7.6600    -3.9530     0.3350 C.ar  1 <1>  -0.1570 
 29 O        8.2510    -4.1350    -2.0100 O.3   1 <1>  -0.3680 
 30 C        8.6520    -5.4820    -1.8760 C.3   1 <1>   0.0330 
 31 H       -0.3760     3.7690     0.0930 H     1 <1>   0.0730 
 32 H        0.7520     4.6660    -0.8730 H     1 <1>   0.0730 
 33 H        0.8320    -0.4110     2.0890 H     1 <1>   0.0730 
 34 H        2.4920    -0.9380     2.0550 H     1 <1>   0.0730 
 35 H        1.4280    -1.2940     0.7020 H     1 <1>   0.0730 
 36 H        1.8960     5.5130     1.1210 H     1 <1>   0.1430 
 37 H        4.4610    -0.8980     0.7710 H     1 <1>   0.4450 
 38 H        0.4250     5.7600     3.1470 H     1 <1>   0.1430 
 39 H       -0.7510     4.6120     2.4530 H     1 <1>   0.1430 
 40 H        6.3690     3.4690    -0.6260 H     1 <1>   0.0730 
 41 H        5.5040     3.2800    -2.1320 H     1 <1>   0.0730 
 42 H        6.8810     1.4640    -2.8280 H     1 <1>   0.0730 
 43 H        8.5270     0.3500    -1.4320 H     1 <1>   0.0730 
 44 H        8.2050     1.4300    -0.1040 H     1 <1>   0.0730 
 45 H        8.7220     3.4900    -1.5300 H     1 <1>   0.0730 
 46 H        7.9630     3.6530    -3.0960 H     1 <1>   0.0730 
 47 H        9.1440     2.4020    -2.8300 H     1 <1>   0.0730 
 48 H        7.5720    -1.7280    -2.1810 H     1 <1>   0.1430 
 49 H        7.0840    -3.5960     2.3390 H     1 <1>   0.1430 
 50 H        6.3470    -0.4560     4.0600 H     1 <1>   0.0730 
 51 H        7.7050    -1.4660     3.5810 H     1 <1>   0.0730 
 52 H        6.0920    -2.1710     3.7740 H     1 <1>   0.0730 
 53 H        7.9140    -4.9760     0.5480 H     1 <1>   0.1430 
 54 H        8.9820    -5.8290    -2.8380 H     1 <1>   0.0730 
 55 H        7.8110    -6.0660    -1.5460 H     1 <1>   0.0730 
 56 H        9.4620    -5.5380    -1.1710 H     1 <1>   0.0730 
@<TRIPOS>BOND
  1   1   2  2   
  2   2   3  am  
  3   2   4  am  
  4   3   5  am  
  5   3   6  1   
  6   4   7  1   
  7   4   8  1   
  8   5   9  2   
  9   5  10  1   
 10   6  11  1   
 11   6  31  1   
 12   6  32  1   
 13   7  10  2   
 14   7  12  1   
 15   8  33  1   
 16   8  34  1   
 17   8  35  1   
 18  10  13  1   
 19  11  14  2   
 20  11  36  1   
 21  12  15  ar  
 22  12  37  1   
 23  13  15  ar  
 24  13  16  1   
 25  14  38  1   
 26  14  39  1   
 27  15  17  ar  
 28  16  18  1   
 29  16  40  1   
 30  16  41  1   
 31  17  19  1   
 32  17  20  1   
 33  18  20  1   
 34  18  21  1   
 35  18  42  1   
 36  19  22  ar  
 37  19  23  ar  
 38  20  43  1   
 39  20  44  1   
 40  21  45  1   
 41  21  46  1   
 42  21  47  1   
 43  22  24  1   
 44  22  25  ar  
 45  23  26  ar  
 46  23  48  1   
 47  24  27  1   
 48  25  28  ar  
 49  25  49  1   
 50  26  28  ar  
 51  26  29  1   
 52  27  50  1   
 53  27  51  1   
 54  27  52  1   
 55  28  53  1   
 56  29  30  1   
 57  30  54  1   
 58  30  55  1   
 59  30  56  1   
@<TRIPOS>SUBSTRUCTURE
  1 ****  15 GROUP 4 **** **** 0

# MOE 2024.06 (io_trps.svl 2023.06)
