@<TRIPOS>MOLECULE
Cyclopropanecarboxylic acid (2-oxo-1,2,3,4-tetrahydro-quinolin-7-yl)-amide
31 33 1 0 0 
SMALL
USER_CHARGES


@<TRIPOS>ATOM
  1 O        0.7820    -0.1710     0.9700 O.2   1 <1>  -0.5700 
  2 C        1.6890     0.5260     0.5950 C.2   1 <1>   0.5690 
  3 N        2.9730     0.1000     0.6570 N.am  1 <1>  -0.5470 
  4 C        1.4140     1.9010     0.0180 C.3   1 <1>  -0.0990 
  5 C        4.0800     0.8750     0.3010 C.ar  1 <1>   0.1170 
  6 C        2.5520     2.8850     0.3370 C.3   1 <1>  -0.0160 
  7 C        3.9190     2.2450     0.1110 C.ar  1 <1>  -0.1430 
  8 C        5.3290     0.2990     0.1290 C.ar  1 <1>  -0.1500 
  9 C        5.0070     3.0140    -0.2590 C.ar  1 <1>  -0.1500 
 10 C        6.4280     1.0620    -0.2380 C.ar  1 <1>   0.1170 
 11 C        6.2480     2.4280    -0.4350 C.ar  1 <1>  -0.1500 
 12 N        7.6660     0.4210    -0.4100 N.am  1 <1>  -0.5470 
 13 C        8.9430     0.9040    -0.4060 C.2   1 <1>   0.6300 
 14 O        9.2330     2.0620    -0.2350 O.2   1 <1>  -0.5700 
 15 C       10.0590    -0.1040    -0.6350 C.3   1 <1>  -0.1000 
 16 C       10.0920    -1.4270     0.0810 C.3   1 <1>  -0.2000 
 17 C       11.0830    -0.3620     0.4320 C.3   1 <1>  -0.2000 
 18 H        3.1030    -0.8470     1.0090 H     1 <1>   0.3700 
 19 H        0.4830     2.2730     0.4060 H     1 <1>   0.0800 
 20 H        1.3190     1.7970    -1.0460 H     1 <1>   0.0800 
 21 H        2.4850     3.1760     1.3710 H     1 <1>   0.0800 
 22 H        2.4450     3.7680    -0.2670 H     1 <1>   0.0800 
 23 H        5.4430    -0.7570     0.2830 H     1 <1>   0.1500 
 24 H        4.9000     4.0740    -0.4100 H     1 <1>   0.1500 
 25 H        7.0780     3.0450    -0.7280 H     1 <1>   0.1500 
 26 H        7.6150    -0.5890    -0.5170 H     1 <1>   0.3700 
 27 H       10.4190    -0.0640    -1.6470 H     1 <1>   0.1000 
 28 H       10.4410    -2.2960    -0.4490 H     1 <1>   0.1000 
 29 H        9.3440    -1.6650     0.8170 H     1 <1>   0.1000 
 30 H       10.9840     0.1650     1.3660 H     1 <1>   0.1000 
 31 H       12.1110    -0.4820     0.1350 H     1 <1>   0.1000 
@<TRIPOS>BOND
  1   1   2  2   
  2   2   3  am  
  3   2   4  1   
  4   3   5  1   
  5   3  18  1   
  6   4   6  1   
  7   4  19  1   
  8   4  20  1   
  9   5   7  ar  
 10   5   8  ar  
 11   6   7  1   
 12   6  21  1   
 13   6  22  1   
 14   7   9  ar  
 15   8  10  ar  
 16   8  23  1   
 17   9  11  ar  
 18   9  24  1   
 19  10  11  ar  
 20  10  12  1   
 21  11  25  1   
 22  12  13  am  
 23  12  26  1   
 24  13  14  2   
 25  13  15  1   
 26  15  16  1   
 27  15  17  1   
 28  15  27  1   
 29  16  17  1   
 30  16  28  1   
 31  16  29  1   
 32  17  30  1   
 33  17  31  1   
@<TRIPOS>SUBSTRUCTURE
  1 ****  10 GROUP 4 **** **** 0

# MOE 2024.06 (io_trps.svl 2023.06)
