@<TRIPOS>MOLECULE
N-Cyclohexyl-N-(3-p-tolyl-[1,2,4]oxadiazol-5-ylmethyl)-acetamide
46 48 1 0 0 
SMALL
USER_CHARGES


@<TRIPOS>ATOM
  1 O        0.5000     0.6280     1.3060 O.2   1 <1>  -0.5700 
  2 C        0.6080     1.7890     0.9960 C.2   1 <1>   0.5690 
  3 N        1.6480     2.2190     0.2070 N.am  1 <1>  -0.6600 
  4 C       -0.4820     2.7000     1.5160 C.3   1 <1>  -0.1790 
  5 C        1.9810     3.6080    -0.2480 C.3   1 <1>   0.2200 
  6 C        2.6540     1.2010    -0.2600 C.3   1 <1>   0.3200 
  7 C        2.5330     4.4760     0.8930 C.3   1 <1>  -0.1600 
  8 C        0.8350     4.2980    -1.0020 C.3   1 <1>  -0.1600 
  9 C        4.0330     1.4450     0.3340 C.2   1 <1>   0.2980 
 10 C        2.9750     5.8470     0.3600 C.3   1 <1>  -0.1600 
 11 C        1.2970     5.6610    -1.5400 C.3   1 <1>  -0.1600 
 12 O        4.2150     1.2280     1.6090 O.3   1 <1>  -0.0190 
 13 N        5.0530     1.8630    -0.2990 N.2   1 <1>  -0.5650 
 14 C        1.8420     6.5450    -0.4080 C.3   1 <1>  -0.1600 
 15 N        5.4570     1.5390     1.8080 N.2   1 <1>  -0.4100 
 16 C        5.9580     1.9160     0.6850 C.2   1 <1>   0.4620 
 17 C        7.3270     2.3550     0.4710 C.ar  1 <1>   0.0540 
 18 C        8.2480     2.3910     1.5190 C.ar  1 <1>  -0.1500 
 19 C        7.7820     2.7610    -0.7850 C.ar  1 <1>  -0.1500 
 20 C        9.5520     2.8100     1.3250 C.ar  1 <1>  -0.1500 
 21 C        9.0840     3.1810    -0.9850 C.ar  1 <1>  -0.1500 
 22 C        9.9790     3.2100     0.0710 C.ar  1 <1>  -0.1440 
 23 C       11.4100     3.6680    -0.1460 C.3   1 <1>  -0.0970 
 24 H       -0.0910     3.6310     1.8660 H     1 <1>   0.0800 
 25 H       -0.9810     2.2220     2.3380 H     1 <1>   0.0800 
 26 H       -1.2050     2.8710     0.7420 H     1 <1>   0.0800 
 27 H        2.7820     3.5260    -0.9660 H     1 <1>   0.0800 
 28 H        2.7240     1.2520    -1.3320 H     1 <1>   0.0800 
 29 H        2.3520     0.2000    -0.0110 H     1 <1>   0.0800 
 30 H        3.3790     3.9900     1.3450 H     1 <1>   0.0800 
 31 H        1.7910     4.6290     1.6510 H     1 <1>   0.0800 
 32 H        0.0000     4.4730    -0.3550 H     1 <1>   0.0800 
 33 H        0.5170     3.6790    -1.8210 H     1 <1>   0.0800 
 34 H        3.8210     5.7180    -0.2950 H     1 <1>   0.0800 
 35 H        3.2910     6.4680     1.1810 H     1 <1>   0.0800 
 36 H        0.4710     6.1590    -2.0190 H     1 <1>   0.0800 
 37 H        2.0660     5.5150    -2.2800 H     1 <1>   0.0800 
 38 H        2.2050     7.4710    -0.8180 H     1 <1>   0.0800 
 39 H        1.0430     6.7810     0.2760 H     1 <1>   0.0800 
 40 H        7.9390     2.0860     2.5030 H     1 <1>   0.1500 
 41 H        7.1050     2.7480    -1.6210 H     1 <1>   0.1500 
 42 H       10.2350     2.8220     2.1570 H     1 <1>   0.1500 
 43 H        9.3990     3.4860    -1.9670 H     1 <1>   0.1500 
 44 H       11.8020     4.1140     0.7500 H     1 <1>   0.0800 
 45 H       11.4560     4.3970    -0.9350 H     1 <1>   0.0800 
 46 H       12.0240     2.8270    -0.4140 H     1 <1>   0.0800 
@<TRIPOS>BOND
  1   1   2  2   
  2   2   3  am  
  3   2   4  1   
  4   3   5  1   
  5   3   6  1   
  6   4  24  1   
  7   4  25  1   
  8   4  26  1   
  9   5   7  1   
 10   5   8  1   
 11   5  27  1   
 12   6   9  1   
 13   6  28  1   
 14   6  29  1   
 15   7  10  1   
 16   7  30  1   
 17   7  31  1   
 18   8  11  1   
 19   8  32  1   
 20   8  33  1   
 21   9  12  1   
 22   9  13  2   
 23  10  14  1   
 24  10  34  1   
 25  10  35  1   
 26  11  14  1   
 27  11  36  1   
 28  11  37  1   
 29  12  15  1   
 30  13  16  1   
 31  14  38  1   
 32  14  39  1   
 33  15  16  2   
 34  16  17  1   
 35  17  18  ar  
 36  17  19  ar  
 37  18  20  ar  
 38  18  40  1   
 39  19  21  ar  
 40  19  41  1   
 41  20  22  ar  
 42  20  42  1   
 43  21  22  ar  
 44  21  43  1   
 45  22  23  1   
 46  23  44  1   
 47  23  45  1   
 48  23  46  1   
@<TRIPOS>SUBSTRUCTURE
  1 ****  13 GROUP 4 **** **** 0

# MOE 2024.06 (io_trps.svl 2023.06)
