@<TRIPOS>MOLECULE
4-(2,5-Dimethoxy-phenyl)-2,7-dimethyl-5-oxo-1,4,5,6,7,8-hexahydro-quinoline-3-ca
59 62 1 0 0 
SMALL
USER_CHARGES


@<TRIPOS>ATOM
  1 O       -0.0040    -0.5180    -1.1260 O.2   1 <1>  -0.5700 
  2 C        0.2480    -1.4090    -0.3490 C.2   1 <1>   0.4950 
  3 C        1.5550    -1.9130    -0.0860 C.2   1 <1>  -0.1240 
  4 C       -0.9380    -2.0740     0.3310 C.3   1 <1>  -0.0990 
  5 C        1.7800    -3.0260     0.6590 C.2   1 <1>  -0.0380 
  6 C        2.7370    -1.1640    -0.7180 C.3   1 <1>   0.3400 
  7 C       -0.5410    -2.8210     1.6170 C.3   1 <1>  -0.0800 
  8 N        3.0340    -3.5670     0.8040 N.pl3 1 <1>  -0.6000 
  9 C        0.6480    -3.7630     1.3560 C.3   1 <1>  -0.0220 
 10 C        4.0690    -1.9010    -0.5590 C.2   1 <1>  -0.1240 
 11 C        2.8500     0.2680    -0.1630 C.ar  1 <1>  -0.1440 
 12 C       -1.7370    -3.5880     2.1970 C.3   1 <1>  -0.2400 
 13 C        4.1440    -3.0380     0.1800 C.2   1 <1>  -0.0380 
 14 C        5.1470    -1.2330    -1.2080 C.2   1 <1>   0.6160 
 15 C        3.4090     0.5650     1.0810 C.ar  1 <1>   0.0830 
 16 C        2.3840     1.3210    -0.9400 C.ar  1 <1>  -0.1500 
 17 C        5.4170    -3.8370     0.4050 C.3   1 <1>  -0.1020 
 18 O        5.1470    -1.0780    -2.4150 O.2   1 <1>  -0.5700 
 19 N        6.1610    -0.7460    -0.4310 N.am  1 <1>  -0.5470 
 20 O        3.8980    -0.4120     1.8770 O.3   1 <1>  -0.3630 
 21 C        3.5060     1.8760     1.5230 C.ar  1 <1>  -0.1500 
 22 C        2.4620     2.6380    -0.4940 C.ar  1 <1>   0.0830 
 23 C        7.3660    -0.1360    -0.6930 C.ar  1 <1>   0.4270 
 24 C        3.1300    -0.7260     3.0140 C.3   1 <1>   0.0400 
 25 C        3.0310     2.9080     0.7380 C.ar  1 <1>  -0.1500 
 26 O        2.0030     3.7030    -1.2020 O.3   1 <1>  -0.3630 
 27 N        8.0050     0.2300     0.4090 N.ar  1 <1>  -0.6200 
 28 C        7.8780     0.0720    -1.9740 C.ar  1 <1>  -0.1500 
 29 C        1.2580     3.5120    -2.3850 C.3   1 <1>   0.0400 
 30 C        9.1740     0.8250     0.2360 C.ar  1 <1>   0.1600 
 31 C        9.0970     0.6900    -2.1390 C.ar  1 <1>  -0.1500 
 32 C        9.7580     1.0760    -0.9920 C.ar  1 <1>  -0.1500 
 33 H       -1.3790    -2.7580    -0.3710 H     1 <1>   0.0800 
 34 H       -1.6690    -1.3200     0.5640 H     1 <1>   0.0800 
 35 H        2.5420    -1.1110    -1.7760 H     1 <1>   0.0800 
 36 H       -0.2270    -2.0870     2.3410 H     1 <1>   0.0800 
 37 H        3.1520    -4.4220     1.3590 H     1 <1>   0.4000 
 38 H        0.9950    -4.1510     2.2980 H     1 <1>   0.0800 
 39 H        0.3420    -4.5920     0.7420 H     1 <1>   0.0800 
 40 H       -2.0850    -4.3340     1.5050 H     1 <1>   0.0800 
 41 H       -2.5470    -2.9110     2.4060 H     1 <1>   0.0800 
 42 H       -1.4600    -4.0750     3.1160 H     1 <1>   0.0800 
 43 H        1.9510     1.1020    -1.8980 H     1 <1>   0.1500 
 44 H        5.2570    -4.8640     0.1310 H     1 <1>   0.0800 
 45 H        5.6990    -3.7900     1.4410 H     1 <1>   0.0800 
 46 H        6.2330    -3.4630    -0.1870 H     1 <1>   0.0800 
 47 H        5.9420    -0.7300     0.5650 H     1 <1>   0.3700 
 48 H        3.9600     2.0860     2.4740 H     1 <1>   0.1500 
 49 H        3.5660    -1.5890     3.4840 H     1 <1>   0.0800 
 50 H        2.1240    -0.9470     2.7020 H     1 <1>   0.0800 
 51 H        3.1410     0.1110     3.6880 H     1 <1>   0.0800 
 52 H        3.0990     3.9270     1.0720 H     1 <1>   0.1500 
 53 H        7.3280    -0.2460    -2.8370 H     1 <1>   0.1500 
 54 H        0.9290     4.4740    -2.7320 H     1 <1>   0.0800 
 55 H        0.4080     2.8890    -2.1660 H     1 <1>   0.0800 
 56 H        1.8910     3.0530    -3.1240 H     1 <1>   0.0800 
 57 H        9.6970     1.1300     1.1260 H     1 <1>   0.1500 
 58 H        9.5120     0.8630    -3.1170 H     1 <1>   0.1500 
 59 H       10.7130     1.5650    -1.0500 H     1 <1>   0.1500 
@<TRIPOS>BOND
  1   1   2  2   
  2   2   3  1   
  3   2   4  1   
  4   3   5  2   
  5   3   6  1   
  6   4   7  1   
  7   4  33  1   
  8   4  34  1   
  9   5   8  1   
 10   5   9  1   
 11   6  10  1   
 12   6  11  1   
 13   6  35  1   
 14   7   9  1   
 15   7  12  1   
 16   7  36  1   
 17   8  13  1   
 18   8  37  1   
 19   9  38  1   
 20   9  39  1   
 21  10  13  2   
 22  10  14  1   
 23  11  15  ar  
 24  11  16  ar  
 25  12  40  1   
 26  12  41  1   
 27  12  42  1   
 28  13  17  1   
 29  14  18  2   
 30  14  19  am  
 31  15  20  1   
 32  15  21  ar  
 33  16  22  ar  
 34  16  43  1   
 35  17  44  1   
 36  17  45  1   
 37  17  46  1   
 38  19  23  1   
 39  19  47  1   
 40  20  24  1   
 41  21  25  ar  
 42  21  48  1   
 43  22  25  ar  
 44  22  26  1   
 45  23  27  ar  
 46  23  28  ar  
 47  24  49  1   
 48  24  50  1   
 49  24  51  1   
 50  25  52  1   
 51  26  29  1   
 52  27  30  ar  
 53  28  31  ar  
 54  28  53  1   
 55  29  54  1   
 56  29  55  1   
 57  29  56  1   
 58  30  32  ar  
 59  30  57  1   
 60  31  32  ar  
 61  31  58  1   
 62  32  59  1   
@<TRIPOS>SUBSTRUCTURE
  1 ****  11 GROUP 4 **** **** 0

# MOE 2024.06 (io_trps.svl 2023.06)
