@<TRIPOS>MOLECULE
5-(4-Methoxy-phenyl)-2-propylsulfanyl-5,8-dihydro-3H,6H-pyrido[2,3-d]pyrimidine-
43 45 1 0 0 
SMALL
USER_CHARGES


@<TRIPOS>ATOM
  1 S        0.0630     0.2040     0.7210 S.3   1 <1>  -0.3710 
  2 C        1.5640     1.0480     0.2970 C.2   1 <1>   0.6410 
  3 C       -1.2660     1.0800    -0.2230 C.3   1 <1>   0.0700 
  4 N        2.6570     0.5660     0.9320 N.pl3 1 <1>  -0.5500 
  5 N        1.5530     2.0130    -0.5390 N.2   1 <1>  -0.6610 
  6 C       -1.6890     2.3160     0.5740 C.3   1 <1>  -0.1600 
  7 C        3.8670     1.1460     0.7300 C.2   1 <1>   0.2090 
  8 C        2.7580     2.6020    -0.8010 C.2   1 <1>   0.7670 
  9 C       -2.7990     3.0860    -0.1490 C.3   1 <1>  -0.2400 
 10 N        4.9700     0.6040     1.3330 N.am  1 <1>  -0.5390 
 11 C        3.9330     2.2180    -0.1020 C.2   1 <1>  -0.1240 
 12 O        2.7790     3.4340    -1.6970 O.2   1 <1>  -0.5700 
 13 C        6.2190     1.1170     1.2140 C.2   1 <1>   0.5690 
 14 C        5.2610     2.9500    -0.3220 C.3   1 <1>   0.2020 
 15 O        7.1760     0.4930     1.5840 O.2   1 <1>  -0.5700 
 16 C        6.3860     2.5090     0.6450 C.3   1 <1>  -0.0990 
 17 C        5.1130     4.4670    -0.1940 C.ar  1 <1>  -0.1430 
 18 C        5.6430     5.3040    -1.1660 C.ar  1 <1>  -0.1500 
 19 C        4.4580     5.0300     0.8950 C.ar  1 <1>  -0.1500 
 20 C        5.5210     6.6770    -1.0500 C.ar  1 <1>  -0.1500 
 21 C        4.3330     6.4030     1.0110 C.ar  1 <1>  -0.1500 
 22 C        4.8680     7.2380     0.0350 C.ar  1 <1>   0.0820 
 23 O        4.7900     8.5920     0.0710 O.3   1 <1>  -0.3620 
 24 C        4.0570     9.2540     1.0760 C.3   1 <1>   0.0400 
 25 H       -2.0820     0.3880    -0.3340 H     1 <1>   0.0800 
 26 H       -0.8730     1.3380    -1.1910 H     1 <1>   0.0800 
 27 H        2.5150    -0.2200     1.5640 H     1 <1>   0.4000 
 28 H       -0.8410     2.9650     0.7050 H     1 <1>   0.0800 
 29 H       -2.0390     2.0120     1.5450 H     1 <1>   0.0800 
 30 H       -2.4570     3.4170    -1.1140 H     1 <1>   0.0800 
 31 H       -3.0810     3.9500     0.4270 H     1 <1>   0.0800 
 32 H       -3.6670     2.4630    -0.2810 H     1 <1>   0.0800 
 33 H        4.9280    -0.3010     1.8000 H     1 <1>   0.3700 
 34 H        5.5750     2.7140    -1.3240 H     1 <1>   0.0800 
 35 H        7.3340     2.5750     0.1440 H     1 <1>   0.0800 
 36 H        6.4250     3.1750     1.4870 H     1 <1>   0.0800 
 37 H        6.1490     4.8960    -2.0230 H     1 <1>   0.1500 
 38 H        4.0370     4.4020     1.6610 H     1 <1>   0.1500 
 39 H        5.9290     7.3250    -1.8040 H     1 <1>   0.1500 
 40 H        3.8190     6.8030     1.8640 H     1 <1>   0.1500 
 41 H        4.1020    10.3100     0.8810 H     1 <1>   0.0800 
 42 H        4.5020     9.0390     2.0320 H     1 <1>   0.0800 
 43 H        3.0350     8.9180     1.0400 H     1 <1>   0.0800 
@<TRIPOS>BOND
  1   1   2  1   
  2   1   3  1   
  3   2   4  1   
  4   2   5  2   
  5   3   6  1   
  6   3  25  1   
  7   3  26  1   
  8   4   7  1   
  9   4  27  1   
 10   5   8  1   
 11   6   9  1   
 12   6  28  1   
 13   6  29  1   
 14   7  10  1   
 15   7  11  2   
 16   8  11  1   
 17   8  12  2   
 18   9  30  1   
 19   9  31  1   
 20   9  32  1   
 21  10  13  am  
 22  10  33  1   
 23  11  14  1   
 24  13  15  2   
 25  13  16  1   
 26  14  16  1   
 27  14  17  1   
 28  14  34  1   
 29  16  35  1   
 30  16  36  1   
 31  17  18  ar  
 32  17  19  ar  
 33  18  20  ar  
 34  18  37  1   
 35  19  21  ar  
 36  19  38  1   
 37  20  22  ar  
 38  20  39  1   
 39  21  22  ar  
 40  21  40  1   
 41  22  23  1   
 42  23  24  1   
 43  24  41  1   
 44  24  42  1   
 45  24  43  1   
@<TRIPOS>SUBSTRUCTURE
  1 ****  11 GROUP 4 **** **** 0

# MOE 2024.06 (io_trps.svl 2023.06)
