@<TRIPOS>MOLECULE
2-(Benzooxazol-2-ylsulfanyl)-N-(2-methoxy-1-methyl-ethyl)-acetamide
35 36 1 0 0 
SMALL
USER_CHARGES


@<TRIPOS>ATOM
  1 S        0.1390    -0.6260    -0.4850 S.3   1 <1>  -0.2860 
  2 C       -1.6150    -0.3780    -0.3020 C.2   1 <1>   0.5340 
  3 C        0.6260    -1.3210     1.1700 C.3   1 <1>   0.1310 
  4 O       -2.2660     0.1200    -1.3350 O.3   1 <1>  -0.2800 
  5 N       -2.2870    -0.6480     0.7500 N.2   1 <1>  -0.5650 
  6 C        2.1030    -1.6830     1.2180 C.2   1 <1>   0.5690 
  7 C       -3.5150     0.1870    -0.9150 C.ar  1 <1>   0.1400 
  8 C       -3.5460    -0.2860     0.3780 C.ar  1 <1>   0.2270 
  9 O        2.6080    -1.8890     2.2940 O.2   1 <1>  -0.5700 
 10 N        2.8220    -1.7690     0.0680 N.am  1 <1>  -0.7300 
 11 C       -4.6540     0.6320    -1.5700 C.ar  1 <1>  -0.1500 
 12 C       -4.7520    -0.3270     1.0690 C.ar  1 <1>  -0.1500 
 13 C        4.2360    -2.1790    -0.0280 C.3   1 <1>   0.2200 
 14 C       -5.8510     0.5900    -0.8800 C.ar  1 <1>  -0.1500 
 15 C       -5.8990     0.1120     0.4340 C.ar  1 <1>  -0.1500 
 16 C        5.1460    -1.0040     0.3710 C.3   1 <1>   0.1200 
 17 C        4.4720    -2.6600    -1.4600 C.3   1 <1>  -0.2400 
 18 O        6.4870    -1.3480     0.1810 O.3   1 <1>  -0.5600 
 19 C        7.3820    -0.3650     0.5890 C.3   1 <1>   0.0400 
 20 H        0.0250    -2.1940     1.3400 H     1 <1>   0.0800 
 21 H        0.4000    -0.5740     1.9080 H     1 <1>   0.0800 
 22 H        2.3660    -1.5430    -0.8190 H     1 <1>   0.3700 
 23 H       -4.5890     0.9940    -2.5810 H     1 <1>   0.1500 
 24 H       -4.7670    -0.6970     2.0780 H     1 <1>   0.1500 
 25 H        4.4080    -2.9900     0.6600 H     1 <1>   0.0800 
 26 H       -6.7580     0.9270    -1.3530 H     1 <1>   0.1500 
 27 H       -6.8430     0.0890     0.9510 H     1 <1>   0.1500 
 28 H        4.9960    -0.7710     1.4110 H     1 <1>   0.0800 
 29 H        4.9290    -0.1440    -0.2370 H     1 <1>   0.0800 
 30 H        4.3360    -1.8540    -2.1590 H     1 <1>   0.0800 
 31 H        3.8040    -3.4670    -1.6980 H     1 <1>   0.0800 
 32 H        5.4800    -3.0220    -1.5560 H     1 <1>   0.0800 
 33 H        8.3790    -0.7210     0.3990 H     1 <1>   0.0800 
 34 H        7.2550    -0.1840     1.6420 H     1 <1>   0.0800 
 35 H        7.2030     0.5350     0.0250 H     1 <1>   0.0800 
@<TRIPOS>BOND
  1   1   2  1   
  2   1   3  1   
  3   2   4  1   
  4   2   5  2   
  5   3   6  1   
  6   3  20  1   
  7   3  21  1   
  8   4   7  1   
  9   5   8  1   
 10   6   9  2   
 11   6  10  am  
 12   7   8  ar  
 13   7  11  ar  
 14   8  12  ar  
 15  10  13  1   
 16  10  22  1   
 17  11  14  ar  
 18  11  23  1   
 19  12  15  ar  
 20  12  24  1   
 21  13  16  1   
 22  13  17  1   
 23  13  25  1   
 24  14  15  ar  
 25  14  26  1   
 26  15  27  1   
 27  16  18  1   
 28  16  28  1   
 29  16  29  1   
 30  17  30  1   
 31  17  31  1   
 32  17  32  1   
 33  18  19  1   
 34  19  33  1   
 35  19  34  1   
 36  19  35  1   
@<TRIPOS>SUBSTRUCTURE
  1 ****   1 GROUP 4 **** **** 0

# MOE 2024.06 (io_trps.svl 2023.06)
