@<TRIPOS>MOLECULE
7-(3-Chloro-benzyl)-3-methyl-8-piperazin-1-yl-3,7-dihydro-purine-2,6-dione
47 50 1 0 0 
SMALL
USER_CHARGES


@<TRIPOS>ATOM
  1 CL      -1.5800    -3.7970    -3.4870 Cl    1 <1>  -0.1850 
  2 C       -0.9830    -3.7540    -1.8520 C.ar  1 <1>   0.1690 
  3 C       -1.6920    -4.4170    -0.8700 C.ar  1 <1>  -0.1580 
  4 C        0.1980    -3.0960    -1.5700 C.ar  1 <1>  -0.1580 
  5 C       -1.1900    -4.4740     0.4250 C.ar  1 <1>  -0.1520 
  6 C        0.6840    -3.1190    -0.2750 C.ar  1 <1>  -0.1580 
  7 C       -0.0020    -3.8090     0.7120 C.ar  1 <1>  -0.1580 
  8 C       -1.9190    -5.2190     1.5410 C.3   1 <1>   0.4920 
  9 N       -2.5530    -6.4940     1.0760 N.pl3 1 <1>  -0.7680 
 10 C       -2.2160    -7.3860     0.1290 C.cat 1 <1>   1.0680 
 11 C       -3.8490    -6.8360     1.5230 C.2   1 <1>   0.2700 
 12 N       -3.2420    -8.2170    -0.0750 N.pl3 1 <1>  -0.7040 
 13 N       -1.0500    -7.5130    -0.5610 N.pl3 1 <1>  -0.5970 
 14 C       -4.7530    -6.3420     2.5230 C.2   1 <1>   0.6990 
 15 C       -4.2460    -7.8940     0.7820 C.2   1 <1>   0.4200 
 16 C        0.3090    -7.2660     0.0370 C.3   1 <1>   0.1600 
 17 C       -0.9980    -8.0750    -1.9560 C.3   1 <1>   0.1600 
 18 O       -4.4890    -5.4130     3.2600 O.2   1 <1>  -0.5750 
 19 N       -5.9610    -6.9650     2.6450 N.am  1 <1>  -0.4960 
 20 N       -5.4770    -8.5180     0.9160 N.am  1 <1>  -0.4420 
 21 C        1.2460    -6.4780    -0.9110 C.3   1 <1>   0.3360 
 22 C       -0.0770    -7.2460    -2.8820 C.3   1 <1>   0.3360 
 23 C       -6.3440    -8.0290     1.8830 C.2   1 <1>   0.6860 
 24 C       -5.8620    -9.6830     0.0650 C.3   1 <1>   0.0510 
 25 N        1.2870    -7.0570    -2.2920 N.4   1 <1>  -0.9090 
 26 O       -7.4330    -8.5150     2.0780 O.2   1 <1>  -0.5750 
 27 H       -2.6300    -4.8700    -1.1360 H     1 <1>   0.1420 
 28 H        0.7200    -2.5640    -2.3480 H     1 <1>   0.1420 
 29 H        1.5940    -2.5910    -0.0330 H     1 <1>   0.1420 
 30 H        0.3980    -3.8030     1.7150 H     1 <1>   0.1420 
 31 H       -2.6710    -4.5500     1.9230 H     1 <1>   0.0710 
 32 H       -1.2430    -5.4360     2.3510 H     1 <1>   0.0710 
 33 H       -3.2500    -9.0210    -0.6950 H     1 <1>   0.4440 
 34 H        0.7660    -8.2170     0.2550 H     1 <1>   0.0710 
 35 H        0.2270    -6.7420     0.9720 H     1 <1>   0.0710 
 36 H       -1.9830    -8.0880    -2.3910 H     1 <1>   0.0710 
 37 H       -0.6410    -9.0910    -1.9190 H     1 <1>   0.0710 
 38 H       -6.6180    -6.6350     3.3510 H     1 <1>   0.3630 
 39 H        2.2400    -6.4550    -0.4940 H     1 <1>   0.0710 
 40 H        0.8980    -5.4630    -0.9700 H     1 <1>   0.0710 
 41 H       -0.5300    -6.2820    -3.0500 H     1 <1>   0.0710 
 42 H        0.0060    -7.7370    -3.8390 H     1 <1>   0.0710 
 43 H       -5.3160   -10.5570     0.3730 H     1 <1>   0.0710 
 44 H       -5.6550    -9.4720    -0.9700 H     1 <1>   0.0710 
 45 H       -6.9150    -9.8920     0.1570 H     1 <1>   0.0710 
 46 H        1.8010    -7.9490    -2.2880 H     1 <1>   0.4440 
 47 H        1.8300    -6.4260    -2.9020 H     1 <1>   0.4440 
@<TRIPOS>BOND
  1   1   2  1   
  2   2   3  ar  
  3   2   4  ar  
  4   3   5  ar  
  5   3  27  1   
  6   4   6  ar  
  7   4  28  1   
  8   5   7  ar  
  9   5   8  1   
 10   6   7  ar  
 11   6  29  1   
 12   7  30  1   
 13   8   9  1   
 14   8  31  1   
 15   8  32  1   
 16   9  10  ar  
 17   9  11  1   
 18  10  12  ar  
 19  10  13  ar  
 20  11  14  1   
 21  11  15  2   
 22  12  15  1   
 23  12  33  1   
 24  13  16  1   
 25  13  17  1   
 26  14  18  2   
 27  14  19  am  
 28  15  20  1   
 29  16  21  1   
 30  16  34  1   
 31  16  35  1   
 32  17  22  1   
 33  17  36  1   
 34  17  37  1   
 35  19  23  am  
 36  19  38  1   
 37  20  23  am  
 38  20  24  1   
 39  21  25  1   
 40  21  39  1   
 41  21  40  1   
 42  22  25  1   
 43  22  41  1   
 44  22  42  1   
 45  23  26  2   
 46  24  43  1   
 47  24  44  1   
 48  24  45  1   
 49  25  46  1   
 50  25  47  1   
@<TRIPOS>SUBSTRUCTURE
  1 ****   9 GROUP 4 **** **** 0

# MOE 2024.06 (io_trps.svl 2023.06)
