@<TRIPOS>MOLECULE
1-(Furan-2-carbonyl)-piperidine-4-carboxylic acid (2-chloro-phenyl)-amide
40 42 1 0 0 
SMALL
USER_CHARGES


@<TRIPOS>ATOM
  1 CL      -0.9050    -0.1910     1.5880 Cl    1 <1>  -0.1770 
  2 C       -1.0710     1.2340     0.5810 C.ar  1 <1>   0.1770 
  3 C       -2.3240     1.5570     0.0600 C.ar  1 <1>   0.1170 
  4 C        0.0530     1.9980     0.3330 C.ar  1 <1>  -0.1500 
  5 N       -3.4220     0.7260     0.3610 N.am  1 <1>  -0.5470 
  6 C       -2.4080     2.7000    -0.7310 C.ar  1 <1>  -0.1500 
  7 C       -0.0570     3.1280    -0.4580 C.ar  1 <1>  -0.1500 
  8 C       -4.7200     0.7080    -0.0730 C.2   1 <1>   0.5690 
  9 C       -1.2890     3.4750    -0.9880 C.ar  1 <1>  -0.1500 
 10 O       -5.1650     1.4960    -0.8710 O.2   1 <1>  -0.5700 
 11 C       -5.6250    -0.3860     0.4990 C.3   1 <1>  -0.0190 
 12 C       -5.3600    -1.7390    -0.1850 C.3   1 <1>  -0.1600 
 13 C       -7.1260    -0.0420     0.3980 C.3   1 <1>  -0.1600 
 14 C       -6.2440    -2.8460     0.3960 C.3   1 <1>   0.1400 
 15 C       -8.0110    -1.1550     0.9640 C.3   1 <1>   0.1400 
 16 N       -7.6770    -2.4490     0.3050 N.am  1 <1>  -0.6600 
 17 C       -8.5720    -3.1490    -0.4880 C.2   1 <1>   0.7150 
 18 O       -8.1290    -3.9480    -1.2950 O.2   1 <1>  -0.5700 
 19 C      -10.0050    -2.9730    -0.3580 C.2   1 <1>   0.0550 
 20 O      -10.7890    -2.8990    -1.4310 O.3   1 <1>  -0.2800 
 21 C      -10.7920    -2.8620     0.7510 C.2   1 <1>  -0.1500 
 22 C      -12.0330    -2.7430    -1.0420 C.2   1 <1>  -0.0100 
 23 C      -12.1050    -2.7110     0.3050 C.2   1 <1>  -0.1500 
 24 H        1.0010     1.7130     0.7540 H     1 <1>   0.1500 
 25 H       -3.1800    -0.0280     1.0050 H     1 <1>   0.3700 
 26 H       -3.3480     3.0000    -1.1560 H     1 <1>   0.1500 
 27 H        0.8090     3.7350    -0.6620 H     1 <1>   0.1500 
 28 H       -1.3790     4.3540    -1.6040 H     1 <1>   0.1500 
 29 H       -5.3870    -0.4830     1.5440 H     1 <1>   0.0800 
 30 H       -4.3280    -2.0190    -0.0670 H     1 <1>   0.0800 
 31 H       -5.5560    -1.6580    -1.2410 H     1 <1>   0.0800 
 32 H       -7.3930     0.1180    -0.6330 H     1 <1>   0.0800 
 33 H       -7.3230     0.8740     0.9260 H     1 <1>   0.0800 
 34 H       -5.9940    -3.0120     1.4290 H     1 <1>   0.0800 
 35 H       -6.0660    -3.7660    -0.1360 H     1 <1>   0.0800 
 36 H       -9.0410    -0.8910     0.7990 H     1 <1>   0.0800 
 37 H       -7.8530    -1.2500     2.0250 H     1 <1>   0.0800 
 38 H      -10.4820    -2.8920     1.7800 H     1 <1>   0.1500 
 39 H      -12.8060    -2.6650    -1.7870 H     1 <1>   0.1500 
 40 H      -12.9760    -2.5980     0.9270 H     1 <1>   0.1500 
@<TRIPOS>BOND
  1   1   2  1   
  2   2   3  ar  
  3   2   4  ar  
  4   3   5  1   
  5   3   6  ar  
  6   4   7  ar  
  7   4  24  1   
  8   5   8  am  
  9   5  25  1   
 10   6   9  ar  
 11   6  26  1   
 12   7   9  ar  
 13   7  27  1   
 14   8  10  2   
 15   8  11  1   
 16   9  28  1   
 17  11  12  1   
 18  11  13  1   
 19  11  29  1   
 20  12  14  1   
 21  12  30  1   
 22  12  31  1   
 23  13  15  1   
 24  13  32  1   
 25  13  33  1   
 26  14  16  1   
 27  14  34  1   
 28  14  35  1   
 29  15  16  1   
 30  15  36  1   
 31  15  37  1   
 32  16  17  am  
 33  17  18  2   
 34  17  19  1   
 35  19  20  1   
 36  19  21  2   
 37  20  22  1   
 38  21  23  1   
 39  21  38  1   
 40  22  23  2   
 41  22  39  1   
 42  23  40  1   
@<TRIPOS>SUBSTRUCTURE
  1 ****  11 GROUP 4 **** **** 0

# MOE 2024.06 (io_trps.svl 2023.06)
