@<TRIPOS>MOLECULE
8-[(Furan-2-ylmethyl)-amino]-7-(2-hydroxy-propyl)-1,3-dimethyl-3,7-dihydro-purin
44 46 1 0 0 
SMALL
USER_CHARGES


@<TRIPOS>ATOM
  1 O        2.4410     0.2780     2.1410 O.2   1 <1>  -0.5750 
  2 C        3.1240     0.8870     1.3440 C.2   1 <1>   0.6850 
  3 N        2.6020     1.9930     0.6790 N.am  1 <1>  -0.4270 
  4 N        4.4300     0.4860     1.1000 N.am  1 <1>  -0.4430 
  5 C        3.3810     2.7460    -0.1910 C.2   1 <1>   0.6990 
  6 C        1.1860     2.3950     0.9500 C.3   1 <1>   0.0510 
  7 C        5.1860     1.2370     0.2250 C.2   1 <1>   0.4190 
  8 C        5.0220    -0.7030     1.7830 C.3   1 <1>   0.0510 
  9 O        2.9250     3.7410    -0.7300 O.2   1 <1>  -0.5750 
 10 C        4.7310     2.3270    -0.4280 C.2   1 <1>   0.2690 
 11 N        6.4800     1.0400    -0.1240 N.pl3 1 <1>  -0.7040 
 12 N        5.8070     2.7920    -1.2160 N.pl3 1 <1>  -0.7680 
 13 C        6.8440     1.9910    -0.9700 C.cat 1 <1>   1.0680 
 14 C        5.7040     3.9140    -2.2070 C.3   1 <1>   0.3470 
 15 N        8.0540     2.1480    -1.4910 N.pl3 1 <1>  -0.7190 
 16 C        6.5220     5.1720    -1.8240 C.3   1 <1>   0.1920 
 17 C        9.3200     1.3830    -1.3280 C.3   1 <1>   0.3400 
 18 O        7.8810     4.8900    -1.8510 O.3   1 <1>  -0.6850 
 19 C        6.1990     5.7150    -0.4320 C.3   1 <1>  -0.2480 
 20 C        9.2690     0.3570    -0.2070 C.2   1 <1>  -0.0490 
 21 O        8.6090    -0.7720    -0.3950 O.3   1 <1>  -0.2880 
 22 C        9.8050     0.3860     1.0330 C.2   1 <1>  -0.1590 
 23 C        8.7210    -1.4900     0.7050 C.2   1 <1>  -0.0200 
 24 C        9.4430    -0.8270     1.6320 C.2   1 <1>  -0.1590 
 25 H        0.5690     1.5220     1.0760 H     1 <1>   0.0710 
 26 H        0.7850     2.9740     0.1360 H     1 <1>   0.0710 
 27 H        1.1450     2.9820     1.8510 H     1 <1>   0.0710 
 28 H        4.2570    -1.2990     2.2510 H     1 <1>   0.0710 
 29 H        5.7160    -0.3780     2.5390 H     1 <1>   0.0710 
 30 H        5.5370    -1.3200     1.0670 H     1 <1>   0.0710 
 31 H        7.1260     0.2990     0.1650 H     1 <1>   0.4440 
 32 H        4.6760     4.2050    -2.3200 H     1 <1>   0.0710 
 33 H        6.0330     3.5690    -3.1720 H     1 <1>   0.0710 
 34 H        8.1880     3.0710    -1.9270 H     1 <1>   0.4440 
 35 H        6.3390     5.9390    -2.5590 H     1 <1>   0.0710 
 36 H       10.1130     2.0800    -1.1150 H     1 <1>   0.0710 
 37 H        9.5590     0.8850    -2.2530 H     1 <1>   0.0710 
 38 H        8.3810     5.7140    -1.6540 H     1 <1>   0.3930 
 39 H        6.4580     5.0050     0.3330 H     1 <1>   0.0710 
 40 H        5.1460     5.9230    -0.3580 H     1 <1>   0.0710 
 41 H        6.7280     6.6350    -0.2550 H     1 <1>   0.0710 
 42 H       10.3980     1.1520     1.5030 H     1 <1>   0.1410 
 43 H        8.2650    -2.4660     0.7450 H     1 <1>   0.1410 
 44 H        9.7150    -1.1390     2.6260 H     1 <1>   0.1410 
@<TRIPOS>BOND
  1   1   2  2   
  2   2   3  am  
  3   2   4  am  
  4   3   5  am  
  5   3   6  1   
  6   4   7  1   
  7   4   8  1   
  8   5   9  2   
  9   5  10  1   
 10   6  25  1   
 11   6  26  1   
 12   6  27  1   
 13   7  10  2   
 14   7  11  1   
 15   8  28  1   
 16   8  29  1   
 17   8  30  1   
 18  10  12  1   
 19  11  13  ar  
 20  11  31  1   
 21  12  13  ar  
 22  12  14  1   
 23  13  15  ar  
 24  14  16  1   
 25  14  32  1   
 26  14  33  1   
 27  15  17  1   
 28  15  34  1   
 29  16  18  1   
 30  16  19  1   
 31  16  35  1   
 32  17  20  1   
 33  17  36  1   
 34  17  37  1   
 35  18  38  1   
 36  19  39  1   
 37  19  40  1   
 38  19  41  1   
 39  20  21  1   
 40  20  22  2   
 41  21  23  1   
 42  22  24  1   
 43  22  42  1   
 44  23  24  2   
 45  23  43  1   
 46  24  44  1   
@<TRIPOS>SUBSTRUCTURE
  1 ****  11 GROUP 4 **** **** 0

# MOE 2024.06 (io_trps.svl 2023.06)
