@<TRIPOS>MOLECULE
7-[3-(3-Ethyl-phenoxy)-2-hydroxy-propyl]-3-methyl-8-(4-methyl-piperazin-1-yl)-3,
64 67 1 0 0 
SMALL
USER_CHARGES


@<TRIPOS>ATOM
  1 O        1.4990     1.6740     1.7760 O.2   1 <1>  -0.5740 
  2 C        2.4990     1.9700     1.1670 C.2   1 <1>   0.6870 
  3 N        3.6900     1.2720     1.3110 N.am  1 <1>  -0.4400 
  4 N        2.4490     3.0330     0.3140 N.am  1 <1>  -0.4940 
  5 C        4.7830     1.7050     0.5750 C.2   1 <1>   0.4220 
  6 C        3.7840     0.1060     2.2400 C.3   1 <1>   0.0540 
  7 C        3.5180     3.4760    -0.4080 C.2   1 <1>   0.7000 
  8 N        6.0440     1.1980     0.5840 N.pl3 1 <1>  -0.7030 
  9 C        4.7480     2.7480    -0.2840 C.2   1 <1>   0.2720 
 10 O        3.3970     4.4720    -1.0930 O.2   1 <1>  -0.5740 
 11 C        6.7960     1.9010    -0.2670 C.cat 1 <1>   1.0690 
 12 N        6.0430     2.8610    -0.8340 N.pl3 1 <1>  -0.7670 
 13 N        8.1070     1.6050    -0.4760 N.pl3 1 <1>  -0.5950 
 14 C        6.4540     4.0670    -1.6370 C.3   1 <1>   0.3490 
 15 C        9.0180     1.2790     0.6770 C.3   1 <1>   0.1620 
 16 C        8.8330     1.9250    -1.7520 C.3   1 <1>   0.1620 
 17 C        7.1520     5.1570    -0.7920 C.3   1 <1>   0.1940 
 18 C       10.1380     0.2810     0.3080 C.3   1 <1>   0.3380 
 19 C        9.9560     0.9150    -2.0820 C.3   1 <1>   0.3380 
 20 O        8.1870     4.5980    -0.0410 O.3   1 <1>  -0.6830 
 21 C        6.1930     5.9060     0.1570 C.3   1 <1>   0.1140 
 22 N       10.8860     0.7000    -0.9230 N.4   1 <1>  -0.9610 
 23 O        6.9240     6.6130     1.1430 O.3   1 <1>  -0.3670 
 24 C       11.9440    -0.3020    -1.2710 C.3   1 <1>   0.2580 
 25 C        7.7800     7.6050     0.7940 C.ar  1 <1>   0.0760 
 26 C        8.9130     7.7630     1.5750 C.ar  1 <1>  -0.1560 
 27 C        7.5760     8.4330    -0.3050 C.ar  1 <1>  -0.1560 
 28 C        9.8620     8.7190     1.2530 C.ar  1 <1>  -0.1490 
 29 C        8.5220     9.3890    -0.6280 C.ar  1 <1>  -0.1560 
 30 C        9.6630     9.5260     0.1450 C.ar  1 <1>  -0.1560 
 31 C       11.1090     8.8820     2.1070 C.3   1 <1>  -0.0230 
 32 C       12.2390     7.9900     1.5870 C.3   1 <1>  -0.2450 
 33 H        1.5630     3.5320     0.2430 H     1 <1>   0.3650 
 34 H        2.8070    -0.1870     2.5870 H     1 <1>   0.0740 
 35 H        4.3820     0.3670     3.0950 H     1 <1>   0.0740 
 36 H        4.2220    -0.7360     1.7350 H     1 <1>   0.0740 
 37 H        6.3420     0.3910     1.1210 H     1 <1>   0.4460 
 38 H        5.5950     4.5010    -2.1180 H     1 <1>   0.0740 
 39 H        7.1130     3.7790    -2.4320 H     1 <1>   0.0740 
 40 H        8.4580     0.8780     1.5040 H     1 <1>   0.0740 
 41 H        9.4740     2.1940     1.0200 H     1 <1>   0.0740 
 42 H        9.2650     2.9090    -1.6810 H     1 <1>   0.0740 
 43 H        8.1390     1.9210    -2.5740 H     1 <1>   0.0740 
 44 H        7.5940     5.8760    -1.4600 H     1 <1>   0.0740 
 45 H        9.7010    -0.6920     0.1480 H     1 <1>   0.0740 
 46 H       10.8240     0.1980     1.1360 H     1 <1>   0.0740 
 47 H       10.5140     1.2750    -2.9310 H     1 <1>   0.0740 
 48 H        9.5080    -0.0240    -2.3610 H     1 <1>   0.0740 
 49 H        8.4990     5.3050     0.5780 H     1 <1>   0.3960 
 50 H        5.5660     5.2120     0.6830 H     1 <1>   0.0740 
 51 H        5.5570     6.5900    -0.3750 H     1 <1>   0.0740 
 52 H       11.3620     1.5940    -0.7230 H     1 <1>   0.4460 
 53 H       11.4990    -1.2590    -1.4920 H     1 <1>   0.0740 
 54 H       12.6300    -0.4230    -0.4480 H     1 <1>   0.0740 
 55 H       12.5010     0.0260    -2.1340 H     1 <1>   0.0740 
 56 H        9.0510     7.1360     2.4370 H     1 <1>   0.1440 
 57 H        6.6920     8.3570    -0.9070 H     1 <1>   0.1440 
 58 H        8.3730    10.0320    -1.4770 H     1 <1>   0.1440 
 59 H       10.3940    10.2710    -0.1170 H     1 <1>   0.1440 
 60 H       10.8860     8.6230     3.1280 H     1 <1>   0.0740 
 61 H       11.4260     9.9100     2.0940 H     1 <1>   0.0740 
 62 H       11.9390     6.9580     1.6140 H     1 <1>   0.0740 
 63 H       13.1160     8.1130     2.1970 H     1 <1>   0.0740 
 64 H       12.4820     8.2560     0.5730 H     1 <1>   0.0740 
@<TRIPOS>BOND
  1   1   2  2   
  2   2   3  am  
  3   2   4  am  
  4   3   5  1   
  5   3   6  1   
  6   4   7  am  
  7   4  33  1   
  8   5   8  1   
  9   5   9  2   
 10   6  34  1   
 11   6  35  1   
 12   6  36  1   
 13   7   9  1   
 14   7  10  2   
 15   8  11  ar  
 16   8  37  1   
 17   9  12  1   
 18  11  12  ar  
 19  11  13  ar  
 20  12  14  1   
 21  13  15  1   
 22  13  16  1   
 23  14  17  1   
 24  14  38  1   
 25  14  39  1   
 26  15  18  1   
 27  15  40  1   
 28  15  41  1   
 29  16  19  1   
 30  16  42  1   
 31  16  43  1   
 32  17  20  1   
 33  17  21  1   
 34  17  44  1   
 35  18  22  1   
 36  18  45  1   
 37  18  46  1   
 38  19  22  1   
 39  19  47  1   
 40  19  48  1   
 41  20  49  1   
 42  21  23  1   
 43  21  50  1   
 44  21  51  1   
 45  22  24  1   
 46  22  52  1   
 47  23  25  1   
 48  24  53  1   
 49  24  54  1   
 50  24  55  1   
 51  25  26  ar  
 52  25  27  ar  
 53  26  28  ar  
 54  26  56  1   
 55  27  29  ar  
 56  27  57  1   
 57  28  30  ar  
 58  28  31  1   
 59  29  30  ar  
 60  29  58  1   
 61  30  59  1   
 62  31  32  1   
 63  31  60  1   
 64  31  61  1   
 65  32  62  1   
 66  32  63  1   
 67  32  64  1   
@<TRIPOS>SUBSTRUCTURE
  1 ****  20 GROUP 4 **** **** 0

# MOE 2024.06 (io_trps.svl 2023.06)
