@<TRIPOS>MOLECULE
3-Oxo-3,4-dihydro-2H-benzo[1,4]oxazine-6-sulfonic acid isopropylamide
32 33 1 0 0 
SMALL
USER_CHARGES


@<TRIPOS>ATOM
  1 S        0.0910     0.0690     0.6800 S.o2  1 <1>   1.4470 
  2 O        0.6800    -0.6050     1.8120 O.2   1 <1>  -0.6500 
  3 O       -0.1100     1.5000     0.7040 O.2   1 <1>  -0.6500 
  4 N        1.0240    -0.1840    -0.6960 N.am  1 <1>  -0.9140 
  5 C       -1.4740    -0.7460     0.2580 C.ar  1 <1>  -0.0090 
  6 C        2.4720    -0.2100    -0.5930 C.3   1 <1>   0.2760 
  7 C       -2.6890    -0.0830     0.3940 C.ar  1 <1>  -0.1500 
  8 C       -1.4930    -2.0590    -0.2010 C.ar  1 <1>  -0.1500 
  9 C        2.9590    -1.5510    -0.0520 C.3   1 <1>  -0.2400 
 10 C        3.0250     0.9800     0.1890 C.3   1 <1>  -0.2400 
 11 C       -3.8900    -0.7020     0.0820 C.ar  1 <1>   0.1170 
 12 C       -2.6830    -2.6930    -0.5190 C.ar  1 <1>  -0.1500 
 13 N       -5.1090    -0.0340     0.2070 N.am  1 <1>  -0.5470 
 14 C       -3.8810    -2.0200    -0.3780 C.ar  1 <1>   0.0830 
 15 C       -6.2960    -0.6540     0.0060 C.2   1 <1>   0.5690 
 16 O       -5.0320    -2.6690    -0.7070 O.3   1 <1>  -0.3630 
 17 O       -7.3340    -0.0420     0.0630 O.2   1 <1>  -0.5700 
 18 C       -6.2950    -2.1580    -0.2660 C.3   1 <1>   0.1810 
 19 H        0.8000     0.6320    -1.2600 H     1 <1>   0.4200 
 20 H        2.8510    -0.1320    -1.6000 H     1 <1>   0.0800 
 21 H       -2.6970     0.9320     0.7510 H     1 <1>   0.1500 
 22 H       -0.5620    -2.5910    -0.3100 H     1 <1>   0.1500 
 23 H        2.7420    -1.6620     0.9940 H     1 <1>   0.0800 
 24 H        4.0250    -1.6200    -0.1720 H     1 <1>   0.0800 
 25 H        2.5060    -2.3580    -0.5980 H     1 <1>   0.0800 
 26 H        2.7910     0.9060     1.2360 H     1 <1>   0.0800 
 27 H        2.6370     1.9040    -0.1990 H     1 <1>   0.0800 
 28 H        4.0960     1.0020     0.0970 H     1 <1>   0.0800 
 29 H       -2.6840    -3.7080    -0.8770 H     1 <1>   0.1500 
 30 H       -5.1450     0.9640     0.4160 H     1 <1>   0.3700 
 31 H       -7.0210    -2.3860    -1.0230 H     1 <1>   0.0800 
 32 H       -6.5560    -2.6760     0.6370 H     1 <1>   0.0800 
@<TRIPOS>BOND
  1   1   2  2   
  2   1   3  2   
  3   1   4  am  
  4   1   5  1   
  5   4   6  1   
  6   4  19  1   
  7   5   7  ar  
  8   5   8  ar  
  9   6   9  1   
 10   6  10  1   
 11   6  20  1   
 12   7  11  ar  
 13   7  21  1   
 14   8  12  ar  
 15   8  22  1   
 16   9  23  1   
 17   9  24  1   
 18   9  25  1   
 19  10  26  1   
 20  10  27  1   
 21  10  28  1   
 22  11  13  1   
 23  11  14  ar  
 24  12  14  ar  
 25  12  29  1   
 26  13  15  am  
 27  13  30  1   
 28  14  16  1   
 29  15  17  2   
 30  15  18  1   
 31  16  18  1   
 32  18  31  1   
 33  18  32  1   
@<TRIPOS>SUBSTRUCTURE
  1 ****   5 GROUP 4 **** **** 0

# MOE 2024.06 (io_trps.svl 2023.06)
