@<TRIPOS>MOLECULE
3-(3,4-Dimethoxy-benzenesulfonylamino)-4-piperidin-1-yl-benzoic acid methyl este
56 58 1 0 0 
SMALL
USER_CHARGES


@<TRIPOS>ATOM
  1 S       -0.7700    -0.5860     0.7440 S.o2  1 <1>   1.4470 
  2 O       -0.9670     0.1720     1.9570 O.2   1 <1>  -0.6500 
  3 O       -1.3970    -1.8770     0.5890 O.2   1 <1>  -0.6500 
  4 N       -1.4270     0.3570    -0.5260 N.am  1 <1>  -0.7570 
  5 C        0.9870    -0.6870     0.3080 C.ar  1 <1>  -0.0090 
  6 C       -1.1940     1.7210    -0.6470 C.ar  1 <1>   0.1990 
  7 C        1.9320     0.1110     0.9410 C.ar  1 <1>  -0.1500 
  8 C        1.4300    -1.5290    -0.7030 C.ar  1 <1>  -0.1500 
  9 C       -2.2790     2.5880    -0.4600 C.ar  1 <1>   0.1000 
 10 C        0.0540     2.2270    -0.9530 C.ar  1 <1>  -0.1500 
 11 C        3.2700     0.0920     0.5840 C.ar  1 <1>   0.0830 
 12 C        2.7610    -1.5640    -1.0820 C.ar  1 <1>  -0.1500 
 13 N       -3.5440     2.0710    -0.1590 N.pl3 1 <1>  -0.8380 
 14 C       -2.0590     3.9540    -0.5660 C.ar  1 <1>  -0.1500 
 15 C        0.2970     3.6000    -1.0380 C.ar  1 <1>   0.0860 
 16 O        4.0680     0.9340     1.2970 O.3   1 <1>  -0.3620 
 17 C        3.6990    -0.7480    -0.4560 C.ar  1 <1>   0.0830 
 18 C       -3.8890     1.9140     1.2780 C.3   1 <1>   0.2090 
 19 C       -4.6990     2.4280    -1.0200 C.3   1 <1>   0.2090 
 20 C       -0.7970     4.4480    -0.8450 C.ar  1 <1>  -0.1500 
 21 C        1.6240     4.1150    -1.2990 C.2   1 <1>   0.6340 
 22 C        5.3890     0.5680     1.6320 C.3   1 <1>   0.0400 
 23 O        5.0070    -0.7360    -0.8440 O.3   1 <1>  -0.3620 
 24 C       -4.9230     0.7930     1.4170 C.3   1 <1>  -0.1600 
 25 C       -5.7510     1.3180    -0.9160 C.3   1 <1>  -0.1600 
 26 O        1.8690     5.2950    -1.4560 O.2   1 <1>  -0.5700 
 27 O        2.6310     3.2360    -1.3490 O.3   1 <1>  -0.4300 
 28 C        5.4700    -1.4750    -1.9540 C.3   1 <1>   0.0400 
 29 C       -6.1600     1.0540     0.5420 C.3   1 <1>  -0.1600 
 30 C        3.9780     3.6320    -1.4990 C.3   1 <1>   0.0400 
 31 H       -2.4390     0.2200    -0.4980 H     1 <1>   0.4200 
 32 H        1.6230     0.7750     1.7300 H     1 <1>   0.1500 
 33 H        0.7170    -2.1620    -1.2070 H     1 <1>   0.1500 
 34 H        0.8610     1.5450    -1.1350 H     1 <1>   0.1500 
 35 H        3.0400    -2.2340    -1.8730 H     1 <1>   0.1500 
 36 H       -2.8810     4.6290    -0.4180 H     1 <1>   0.1500 
 37 H       -4.2930     2.8390     1.6530 H     1 <1>   0.0800 
 38 H       -3.0060     1.6760     1.8470 H     1 <1>   0.0800 
 39 H       -4.3720     2.5330    -2.0410 H     1 <1>   0.0800 
 40 H       -5.1160     3.3650    -0.6920 H     1 <1>   0.0800 
 41 H       -0.6480     5.5120    -0.9130 H     1 <1>   0.1500 
 42 H        6.0320     0.7860     0.7980 H     1 <1>   0.0800 
 43 H        5.6910     1.1490     2.4840 H     1 <1>   0.0800 
 44 H        5.4160    -0.4800     1.8710 H     1 <1>   0.0800 
 45 H       -5.2170     0.7080     2.4480 H     1 <1>   0.0800 
 46 H       -4.4620    -0.1370     1.1320 H     1 <1>   0.0800 
 47 H       -5.3440     0.4200    -1.3450 H     1 <1>   0.0800 
 48 H       -6.6160     1.5940    -1.4910 H     1 <1>   0.0800 
 49 H        5.3300    -2.5230    -1.7590 H     1 <1>   0.0800 
 50 H        4.9270    -1.1670    -2.8300 H     1 <1>   0.0800 
 51 H        6.5160    -1.2640    -2.0810 H     1 <1>   0.0800 
 52 H       -6.6890     1.9100     0.9240 H     1 <1>   0.0800 
 53 H       -6.8220     0.2060     0.5870 H     1 <1>   0.0800 
 54 H        4.5940     2.7510    -1.4730 H     1 <1>   0.0800 
 55 H        4.2380     4.2890    -0.6880 H     1 <1>   0.0800 
 56 H        4.0880     4.1390    -2.4420 H     1 <1>   0.0800 
@<TRIPOS>BOND
  1   1   2  2   
  2   1   3  2   
  3   1   4  am  
  4   1   5  1   
  5   4   6  1   
  6   4  31  1   
  7   5   7  ar  
  8   5   8  ar  
  9   6   9  ar  
 10   6  10  ar  
 11   7  11  ar  
 12   7  32  1   
 13   8  12  ar  
 14   8  33  1   
 15   9  13  1   
 16   9  14  ar  
 17  10  15  ar  
 18  10  34  1   
 19  11  16  1   
 20  11  17  ar  
 21  12  17  ar  
 22  12  35  1   
 23  13  18  1   
 24  13  19  1   
 25  14  20  ar  
 26  14  36  1   
 27  15  20  ar  
 28  15  21  1   
 29  16  22  1   
 30  17  23  1   
 31  18  24  1   
 32  18  37  1   
 33  18  38  1   
 34  19  25  1   
 35  19  39  1   
 36  19  40  1   
 37  20  41  1   
 38  21  26  2   
 39  21  27  1   
 40  22  42  1   
 41  22  43  1   
 42  22  44  1   
 43  23  28  1   
 44  24  29  1   
 45  24  45  1   
 46  24  46  1   
 47  25  29  1   
 48  25  47  1   
 49  25  48  1   
 50  27  30  1   
 51  28  49  1   
 52  28  50  1   
 53  28  51  1   
 54  29  52  1   
 55  29  53  1   
 56  30  54  1   
 57  30  55  1   
 58  30  56  1   
@<TRIPOS>SUBSTRUCTURE
  1 ****  10 GROUP 4 **** **** 0

# MOE 2024.06 (io_trps.svl 2023.06)
