@<TRIPOS>MOLECULE
2-(2-Fluoro-benzylsulfanyl)-ethylamine
25 25 1 0 0 
SMALL
USER_CHARGES


@<TRIPOS>ATOM
  1 S       -0.1170     0.8140     1.7710 S.3   1 <1>  -0.4600 
  2 C        1.4460     1.7420     1.6810 C.3   1 <1>   0.2140 
  3 C       -0.6180     0.6360     0.0420 C.3   1 <1>   0.0700 
  4 C        2.3860     1.0170     0.7300 C.ar  1 <1>  -0.1440 
  5 C       -1.9810    -0.0550     0.0460 C.3   1 <1>   0.3430 
  6 C        2.5940     1.4550    -0.5690 C.ar  1 <1>   0.1900 
  7 C        3.0670    -0.1170     1.1480 C.ar  1 <1>  -0.1500 
  8 N       -2.4710    -0.2890    -1.3420 N.4   1 <1>  -0.8530 
  9 F        1.9460     2.5040    -1.0040 F     1 <1>  -0.1900 
 10 C        3.4520     0.8150    -1.4440 C.ar  1 <1>  -0.1500 
 11 C        3.9290    -0.7770     0.2850 C.ar  1 <1>  -0.1500 
 12 C        4.1250    -0.3140    -1.0070 C.ar  1 <1>  -0.1500 
 13 H        1.8510     1.7800     2.6770 H     1 <1>   0.0800 
 14 H        1.2150     2.7400     1.3510 H     1 <1>   0.0800 
 15 H        0.1330     0.0390    -0.4440 H     1 <1>   0.0800 
 16 H       -0.6600     1.6260    -0.3780 H     1 <1>   0.0800 
 17 H       -2.6830     0.5600     0.5860 H     1 <1>   0.0800 
 18 H       -1.8910    -0.9960     0.5660 H     1 <1>   0.0800 
 19 H        2.9310    -0.4920     2.1490 H     1 <1>   0.1500 
 20 H       -2.5760     0.5960    -1.8520 H     1 <1>   0.4500 
 21 H       -3.3870    -0.7540    -1.3270 H     1 <1>   0.4500 
 22 H       -1.8230    -0.8880    -1.8650 H     1 <1>   0.4500 
 23 H        3.5920     1.1920    -2.4410 H     1 <1>   0.1500 
 24 H        4.4550    -1.6540     0.6220 H     1 <1>   0.1500 
 25 H        4.8010    -0.8300    -1.6680 H     1 <1>   0.1500 
@<TRIPOS>BOND
  1   1   2  1   
  2   1   3  1   
  3   2   4  1   
  4   2  13  1   
  5   2  14  1   
  6   3   5  1   
  7   3  15  1   
  8   3  16  1   
  9   4   6  ar  
 10   4   7  ar  
 11   5   8  1   
 12   5  17  1   
 13   5  18  1   
 14   6   9  1   
 15   6  10  ar  
 16   7  11  ar  
 17   7  19  1   
 18   8  20  1   
 19   8  21  1   
 20   8  22  1   
 21  10  12  ar  
 22  10  23  1   
 23  11  12  ar  
 24  11  24  1   
 25  12  25  1   
@<TRIPOS>SUBSTRUCTURE
  1 ****   4 GROUP 4 **** **** 0

# MOE 2024.06 (io_trps.svl 2023.06)
