@<TRIPOS>MOLECULE
1,3-Diethyl-2-oxo-2,3-dihydro-1H-benzoimidazole-5-sulfonic acid diethylamide
45 46 1 0 0 
SMALL
USER_CHARGES


@<TRIPOS>ATOM
  1 S       -0.4020     0.3540     2.0120 S.o2  1 <1>   1.4470 
  2 O        0.6410    -0.3840     2.6930 O.2   1 <1>  -0.6500 
  3 O       -1.0280     1.4760     2.6760 O.2   1 <1>  -0.6500 
  4 N        0.2700     0.9270     0.5620 N.am  1 <1>  -0.8490 
  5 C       -1.7000    -0.7740     1.4390 C.ar  1 <1>  -0.0090 
  6 C        1.1190     2.0990     0.8010 C.3   1 <1>   0.1960 
  7 C        0.9640    -0.1240    -0.1930 C.3   1 <1>   0.1960 
  8 C       -2.7350    -0.3000     0.6420 C.ar  1 <1>  -0.1500 
  9 C       -1.6840    -2.1330     1.7730 C.ar  1 <1>  -0.1500 
 10 C        1.3950     2.8490    -0.5020 C.3   1 <1>  -0.2400 
 11 C        0.3000    -0.2660    -1.5590 C.3   1 <1>  -0.2400 
 12 C       -3.7160    -1.1690     0.1910 C.ar  1 <1>   0.1170 
 13 C       -2.6620    -3.0060     1.3260 C.ar  1 <1>  -0.1500 
 14 N       -4.8350    -0.9580    -0.6050 N.am  1 <1>  -0.4770 
 15 C       -3.6810    -2.5110     0.5270 C.ar  1 <1>   0.1170 
 16 C       -5.4660    -2.1630    -0.7480 C.2   1 <1>   0.6900 
 17 C       -5.2780     0.3190    -1.1950 C.3   1 <1>   0.1400 
 18 N       -4.7760    -3.1280    -0.0650 N.am  1 <1>  -0.4770 
 19 O       -6.4920    -2.3500    -1.3870 O.2   1 <1>  -0.5700 
 20 C       -5.9820     1.1590    -0.1310 C.3   1 <1>  -0.2400 
 21 C       -5.1680    -4.5450     0.0430 C.3   1 <1>   0.1400 
 22 C       -4.3430    -5.3820    -0.9330 C.3   1 <1>  -0.2400 
 23 H        2.0410     1.8010     1.2740 H     1 <1>   0.0800 
 24 H        0.6150     2.7820     1.4650 H     1 <1>   0.0800 
 25 H        0.9100    -1.0730     0.3160 H     1 <1>   0.0800 
 26 H        2.0080     0.1110    -0.3150 H     1 <1>   0.0800 
 27 H       -2.7740     0.7400     0.3720 H     1 <1>   0.1500 
 28 H       -0.8870    -2.5080     2.3950 H     1 <1>   0.1500 
 29 H        2.0110     2.2700    -1.1640 H     1 <1>   0.0800 
 30 H        1.9120     3.7650    -0.2820 H     1 <1>   0.0800 
 31 H        0.4670     3.0910    -0.9890 H     1 <1>   0.0800 
 32 H       -0.7280    -0.5610    -1.4480 H     1 <1>   0.0800 
 33 H        0.8080    -1.0200    -2.1310 H     1 <1>   0.0800 
 34 H        0.3450     0.6610    -2.1000 H     1 <1>   0.0800 
 35 H       -2.6400    -4.0480     1.5880 H     1 <1>   0.1500 
 36 H       -5.9540     0.1180    -2.0090 H     1 <1>   0.0800 
 37 H       -4.4240     0.8450    -1.5850 H     1 <1>   0.0800 
 38 H       -6.8400     0.6320     0.2450 H     1 <1>   0.0800 
 39 H       -6.3130     2.0870    -0.5620 H     1 <1>   0.0800 
 40 H       -5.3130     1.3780     0.6820 H     1 <1>   0.0800 
 41 H       -6.2160    -4.6410    -0.1870 H     1 <1>   0.0800 
 42 H       -5.0100    -4.8810     1.0530 H     1 <1>   0.0800 
 43 H       -4.5160    -5.0460    -1.9400 H     1 <1>   0.0800 
 44 H       -4.6350    -6.4140    -0.8630 H     1 <1>   0.0800 
 45 H       -3.2960    -5.3040    -0.7050 H     1 <1>   0.0800 
@<TRIPOS>BOND
  1   1   2  2   
  2   1   3  2   
  3   1   4  am  
  4   1   5  1   
  5   4   6  1   
  6   4   7  1   
  7   5   8  ar  
  8   5   9  ar  
  9   6  10  1   
 10   6  23  1   
 11   6  24  1   
 12   7  11  1   
 13   7  25  1   
 14   7  26  1   
 15   8  12  ar  
 16   8  27  1   
 17   9  13  ar  
 18   9  28  1   
 19  10  29  1   
 20  10  30  1   
 21  10  31  1   
 22  11  32  1   
 23  11  33  1   
 24  11  34  1   
 25  12  14  1   
 26  12  15  ar  
 27  13  15  ar  
 28  13  35  1   
 29  14  16  am  
 30  14  17  1   
 31  15  18  1   
 32  16  18  am  
 33  16  19  2   
 34  17  20  1   
 35  17  36  1   
 36  17  37  1   
 37  18  21  1   
 38  20  38  1   
 39  20  39  1   
 40  20  40  1   
 41  21  22  1   
 42  21  41  1   
 43  21  42  1   
 44  22  43  1   
 45  22  44  1   
 46  22  45  1   
@<TRIPOS>SUBSTRUCTURE
  1 ****   8 GROUP 4 **** **** 0

# MOE 2024.06 (io_trps.svl 2023.06)
