@<TRIPOS>MOLECULE
4-tert-Butyl-N-(5,6-dimethyl-7-oxo-4,7-dihydro-[1,2,4]triazolo[1,5-a]pyrimidin-2
46 48 1 0 0 
SMALL
USER_CHARGES


@<TRIPOS>ATOM
  1 O       -0.0510    -0.7180     1.1820 O.2   1 <1>  -0.5700 
  2 C       -0.2410    -1.7310     0.5190 C.2   1 <1>   0.5650 
  3 N       -1.5460    -2.1350     0.1520 N.pl3 1 <1>   0.5610 
  4 C        0.8560    -2.5620     0.0870 C.2   1 <1>  -0.1240 
  5 N       -2.7750    -1.6220     0.3980 N.2   1 <1>  -0.7070 
  6 C       -1.7330    -3.2650    -0.5680 C.2   1 <1>   0.2700 
  7 C        0.6280    -3.6840    -0.6620 C.2   1 <1>  -0.0380 
  8 C        2.2560    -2.1120     0.5180 C.3   1 <1>  -0.1020 
  9 C       -3.5490    -2.4550    -0.2060 C.2   1 <1>   0.5790 
 10 N       -2.9700    -3.5060    -0.8010 N.2   1 <1>  -0.5650 
 11 N       -0.6630    -4.0380    -0.9760 N.pl3 1 <1>  -0.5840 
 12 C        1.6780    -4.6320    -1.2210 C.3   1 <1>  -0.1020 
 13 N       -4.9220    -2.3750    -0.2350 N.am  1 <1>  -0.4930 
 14 C       -5.7230    -1.2750    -0.3500 C.2   1 <1>   0.5440 
 15 O       -5.2540    -0.2110    -0.7030 O.2   1 <1>  -0.5700 
 16 C       -7.1470    -1.4100    -0.1120 C.ar  1 <1>   0.0860 
 17 C       -8.0700    -0.6310    -0.8060 C.ar  1 <1>  -0.1500 
 18 C       -7.6600    -2.3220     0.8090 C.ar  1 <1>  -0.1500 
 19 C       -9.4300    -0.7700    -0.6040 C.ar  1 <1>  -0.1500 
 20 C       -9.0210    -2.4630     1.0110 C.ar  1 <1>  -0.1500 
 21 C       -9.9380    -1.6910     0.3050 C.ar  1 <1>  -0.1430 
 22 C      -11.4660    -1.8130     0.4920 C.3   1 <1>   0.1430 
 23 C      -12.1170    -2.1980    -0.8450 C.3   1 <1>  -0.2400 
 24 C      -12.0340    -0.4680     0.9680 C.3   1 <1>  -0.2400 
 25 C      -11.8660    -2.8790     1.5260 C.3   1 <1>  -0.2400 
 26 H        2.2450    -1.8100     1.5510 H     1 <1>   0.0800 
 27 H        2.5650    -1.2690    -0.0750 H     1 <1>   0.0800 
 28 H        2.9890    -2.8890     0.4270 H     1 <1>   0.0800 
 29 H       -0.8840    -4.8730    -1.5310 H     1 <1>   0.4000 
 30 H        1.4240    -4.9080    -2.2290 H     1 <1>   0.0800 
 31 H        1.7200    -5.5240    -0.6220 H     1 <1>   0.0800 
 32 H        2.6540    -4.1890    -1.2520 H     1 <1>   0.0800 
 33 H       -5.3620    -3.2770    -0.3630 H     1 <1>   0.3700 
 34 H       -7.7080     0.0950    -1.5140 H     1 <1>   0.1500 
 35 H       -6.9860    -2.9280     1.3890 H     1 <1>   0.1500 
 36 H      -10.0950    -0.1430    -1.1710 H     1 <1>   0.1500 
 37 H       -9.3430    -3.1870     1.7360 H     1 <1>   0.1500 
 38 H      -11.9550    -1.4400    -1.5890 H     1 <1>   0.0800 
 39 H      -13.1790    -2.3260    -0.7280 H     1 <1>   0.0800 
 40 H      -11.6990    -3.1210    -1.2060 H     1 <1>   0.0800 
 41 H      -11.5580    -0.1730     1.8870 H     1 <1>   0.0800 
 42 H      -13.0930    -0.5420     1.1400 H     1 <1>   0.0800 
 43 H      -11.8680     0.3040     0.2400 H     1 <1>   0.0800 
 44 H      -11.4610    -2.6390     2.4920 H     1 <1>   0.0800 
 45 H      -11.5120    -3.8490     1.2260 H     1 <1>   0.0800 
 46 H      -12.9360    -2.9320     1.6200 H     1 <1>   0.0800 
@<TRIPOS>BOND
  1   1   2  2   
  2   2   3  1   
  3   2   4  1   
  4   3   5  1   
  5   3   6  1   
  6   4   7  2   
  7   4   8  1   
  8   5   9  2   
  9   6  10  2   
 10   6  11  1   
 11   7  11  1   
 12   7  12  1   
 13   8  26  1   
 14   8  27  1   
 15   8  28  1   
 16   9  10  1   
 17   9  13  1   
 18  11  29  1   
 19  12  30  1   
 20  12  31  1   
 21  12  32  1   
 22  13  14  am  
 23  13  33  1   
 24  14  15  2   
 25  14  16  1   
 26  16  17  ar  
 27  16  18  ar  
 28  17  19  ar  
 29  17  34  1   
 30  18  20  ar  
 31  18  35  1   
 32  19  21  ar  
 33  19  36  1   
 34  20  21  ar  
 35  20  37  1   
 36  21  22  1   
 37  22  23  1   
 38  22  24  1   
 39  22  25  1   
 40  23  38  1   
 41  23  39  1   
 42  23  40  1   
 43  24  41  1   
 44  24  42  1   
 45  24  43  1   
 46  25  44  1   
 47  25  45  1   
 48  25  46  1   
@<TRIPOS>SUBSTRUCTURE
  1 ****  13 GROUP 4 **** **** 0

# MOE 2024.06 (io_trps.svl 2023.06)
