@<TRIPOS>MOLECULE
NONAME
35 38 1 0 0 
SMALL
USER_CHARGES


@<TRIPOS>ATOM
  1 S       -0.6420     0.4840    -0.6820 S.o2  1 <1>   1.3330 
  2 O       -0.5560     0.1060    -2.0710 O.2   1 <1>  -0.6500 
  3 O       -1.1190     1.7960    -0.3210 O.2   1 <1>  -0.6500 
  4 N        0.9720     0.4410    -0.1360 N.am  1 <1>  -0.7570 
  5 C       -1.3700    -0.7480     0.4120 C.3   1 <1>   0.0250 
  6 C        1.6410    -0.7650    -0.1290 C.ar  1 <1>   0.1990 
  7 C       -0.4360    -1.9030     0.8520 C.3   1 <1>   0.0640 
  8 C       -2.6670    -1.4760    -0.0300 C.3   1 <1>  -0.0800 
  9 C        1.0010    -1.9310     0.2980 C.ar  1 <1>  -0.1440 
 10 C        2.9590    -0.8190    -0.5620 C.ar  1 <1>  -0.1500 
 11 C       -1.3140    -3.1480     0.5900 C.3   1 <1>  -0.0800 
 12 C       -2.6950    -2.6250     0.9660 C.3   1 <1>  -0.1600 
 13 C       -2.4700    -2.2720    -1.3330 C.3   1 <1>  -0.1600 
 14 C        1.7070    -3.1270     0.2730 C.ar  1 <1>  -0.1500 
 15 C        3.6440    -2.0180    -0.5860 C.ar  1 <1>  -0.1500 
 16 C       -1.4740    -3.3680    -0.9260 C.3   1 <1>  -0.1600 
 17 C        3.0180    -3.1810    -0.1710 C.ar  1 <1>  -0.1430 
 18 C        3.7620    -4.5040    -0.1930 C.3   1 <1>  -0.0970 
 19 H        1.4650     1.2450    -0.5080 H     1 <1>   0.4200 
 20 H       -1.6160    -0.2220     1.3140 H     1 <1>   0.0800 
 21 H       -0.3230    -1.8180     1.9200 H     1 <1>   0.0800 
 22 H       -3.5430    -0.8490    -0.0290 H     1 <1>   0.0800 
 23 H        3.4490     0.0790    -0.8870 H     1 <1>   0.1500 
 24 H       -1.0100    -4.0250     1.1330 H     1 <1>   0.0800 
 25 H       -3.4790    -3.3370     0.7640 H     1 <1>   0.0800 
 26 H       -2.7580    -2.2960     1.9900 H     1 <1>   0.0800 
 27 H       -2.1230    -1.6890    -2.1630 H     1 <1>   0.0800 
 28 H       -3.4040    -2.7240    -1.6220 H     1 <1>   0.0800 
 29 H        1.2430    -4.0360     0.6080 H     1 <1>   0.1500 
 30 H        4.6640    -2.0440    -0.9280 H     1 <1>   0.1500 
 31 H       -1.8910    -4.3400    -1.1250 H     1 <1>   0.0800 
 32 H       -0.5430    -3.2720    -1.4570 H     1 <1>   0.0800 
 33 H        3.0960    -5.3020    -0.4640 H     1 <1>   0.0800 
 34 H        4.1710    -4.7070     0.7800 H     1 <1>   0.0800 
 35 H        4.5640    -4.4760    -0.9080 H     1 <1>   0.0800 
@<TRIPOS>BOND
  1   1   2  2   
  2   1   3  2   
  3   1   4  am  
  4   1   5  1   
  5   4   6  1   
  6   4  19  1   
  7   5   7  1   
  8   5   8  1   
  9   5  20  1   
 10   6   9  ar  
 11   6  10  ar  
 12   7   9  1   
 13   7  11  1   
 14   7  21  1   
 15   8  12  1   
 16   8  13  1   
 17   8  22  1   
 18   9  14  ar  
 19  10  15  ar  
 20  10  23  1   
 21  11  12  1   
 22  11  16  1   
 23  11  24  1   
 24  12  25  1   
 25  12  26  1   
 26  13  16  1   
 27  13  27  1   
 28  13  28  1   
 29  14  17  ar  
 30  14  29  1   
 31  15  17  ar  
 32  15  30  1   
 33  16  31  1   
 34  16  32  1   
 35  17  18  1   
 36  18  33  1   
 37  18  34  1   
 38  18  35  1   
@<TRIPOS>SUBSTRUCTURE
  1 ****   9 GROUP 4 **** **** 0

# MOE 2024.06 (io_trps.svl 2023.06)
