@<TRIPOS>MOLECULE
7-(4-Chloro-phenoxymethyl)-1,3-dimethyl-6,7-dihydro-1H-oxazolo[2,3-f]purine-2,4-
40 43 1 0 0 
SMALL
USER_CHARGES


@<TRIPOS>ATOM
  1 CL      -1.0540    -0.3190    -1.0740 Cl    1 <1>  -0.1770 
  2 C       -1.8890     1.1700    -0.7020 C.ar  1 <1>   0.1770 
  3 C       -3.2430     1.2700    -0.9590 C.ar  1 <1>  -0.1500 
  4 C       -1.1820     2.2250    -0.1570 C.ar  1 <1>  -0.1500 
  5 C       -3.9060     2.4510    -0.6670 C.ar  1 <1>  -0.1500 
  6 C       -1.8490     3.4030     0.1350 C.ar  1 <1>  -0.1500 
  7 C       -3.2080     3.5270    -0.1180 C.ar  1 <1>   0.0830 
  8 O       -3.7680     4.7240     0.1970 O.3   1 <1>  -0.3630 
  9 C       -5.0940     5.0810    -0.1450 C.3   1 <1>   0.1200 
 10 C       -6.0610     4.7810     1.0130 C.3   1 <1>   0.2000 
 11 O       -6.1730     3.3710     1.1960 O.3   1 <1>  -0.3430 
 12 C       -7.4960     5.2760     0.7090 C.3   1 <1>   0.0960 
 13 C       -7.4060     2.9970     0.8490 C.2   1 <1>   0.2490 
 14 N       -8.1990     4.0170     0.5600 N.pl3 1 <1>   0.0480 
 15 N       -7.9250     1.8160     0.7260 N.2   1 <1>  -0.5650 
 16 C       -9.3750     3.4540     0.2050 C.2   1 <1>  -0.2370 
 17 C       -9.1720     2.1210     0.3230 C.2   1 <1>   0.2900 
 18 C      -10.6090     3.9920    -0.2150 C.2   1 <1>   0.7150 
 19 N      -10.1990     1.2310     0.0340 N.am  1 <1>  -0.4230 
 20 O      -10.7650     5.1980    -0.3140 O.2   1 <1>  -0.5700 
 21 N      -11.6240     3.1000    -0.5110 N.am  1 <1>  -0.4200 
 22 C      -11.4260     1.7290    -0.3730 C.2   1 <1>   0.6900 
 23 C       -9.9370    -0.2230     0.1990 C.3   1 <1>   0.0600 
 24 C      -12.9590     3.6020    -0.9510 C.3   1 <1>   0.0600 
 25 O      -12.3460     0.9650    -0.6130 O.2   1 <1>  -0.5700 
 26 H       -3.7720     0.4330    -1.3770 H     1 <1>   0.1500 
 27 H       -0.1300     2.1230     0.0360 H     1 <1>   0.1500 
 28 H       -4.9600     2.5010    -0.8640 H     1 <1>   0.1500 
 29 H       -1.3170     4.2350     0.5610 H     1 <1>   0.1500 
 30 H       -5.3850     4.5940    -1.0570 H     1 <1>   0.0800 
 31 H       -5.0810     6.1410    -0.3260 H     1 <1>   0.0800 
 32 H       -5.6930     5.2170     1.9250 H     1 <1>   0.0800 
 33 H       -7.5590     5.8540    -0.1940 H     1 <1>   0.0800 
 34 H       -7.9050     5.8270     1.5360 H     1 <1>   0.0800 
 35 H       -9.1000    -0.5070    -0.4140 H     1 <1>   0.0800 
 36 H      -10.7940    -0.8080    -0.0860 H     1 <1>   0.0800 
 37 H       -9.6990    -0.4270     1.2280 H     1 <1>   0.0800 
 38 H      -12.8940     4.6150    -1.3070 H     1 <1>   0.0800 
 39 H      -13.6450     3.5620    -0.1240 H     1 <1>   0.0800 
 40 H      -13.3370     2.9850    -1.7490 H     1 <1>   0.0800 
@<TRIPOS>BOND
  1   1   2  1   
  2   2   3  ar  
  3   2   4  ar  
  4   3   5  ar  
  5   3  26  1   
  6   4   6  ar  
  7   4  27  1   
  8   5   7  ar  
  9   5  28  1   
 10   6   7  ar  
 11   6  29  1   
 12   7   8  1   
 13   8   9  1   
 14   9  10  1   
 15   9  30  1   
 16   9  31  1   
 17  10  11  1   
 18  10  12  1   
 19  10  32  1   
 20  11  13  1   
 21  12  14  1   
 22  12  33  1   
 23  12  34  1   
 24  13  14  1   
 25  13  15  2   
 26  14  16  1   
 27  15  17  1   
 28  16  17  2   
 29  16  18  1   
 30  17  19  1   
 31  18  20  2   
 32  18  21  am  
 33  19  22  am  
 34  19  23  1   
 35  21  22  am  
 36  21  24  1   
 37  22  25  2   
 38  23  35  1   
 39  23  36  1   
 40  23  37  1   
 41  24  38  1   
 42  24  39  1   
 43  24  40  1   
@<TRIPOS>SUBSTRUCTURE
  1 ****  13 GROUP 4 **** **** 0

# MOE 2024.06 (io_trps.svl 2023.06)
