@<TRIPOS>MOLECULE
8-[2-(3,3-Dimethyl-2-oxo-butoxy)-phenyl]-1,3,7-trimethyl-1H,8H-imidazo[2,1-f]pur
57 60 1 0 0 
SMALL
USER_CHARGES


@<TRIPOS>ATOM
  1 O        3.9000     1.5450    -4.0400 O.2   1 <1>  -0.5740 
  2 C        4.1520     1.5330    -2.8520 C.2   1 <1>   0.6870 
  3 N        3.5540     2.4630    -2.0050 N.am  1 <1>  -0.4250 
  4 N        5.0380     0.5940    -2.3410 N.am  1 <1>  -0.4410 
  5 C        3.8190     2.4690    -0.6400 C.2   1 <1>   0.7000 
  6 C        2.5930     3.4540    -2.5830 C.3   1 <1>   0.0530 
  7 C        5.3060     0.6190    -0.9880 C.2   1 <1>   0.4210 
  8 C        5.7110    -0.4050    -3.2260 C.3   1 <1>   0.0530 
  9 O        3.2790     3.2730     0.1030 O.2   1 <1>  -0.5740 
 10 C        4.7420     1.5080    -0.1360 C.2   1 <1>   0.2710 
 11 N        6.1570    -0.1840    -0.2960 N.pl3 1 <1>  -0.7030 
 12 N        5.2820     1.2330     1.1310 N.pl3 1 <1>  -0.6330 
 13 C        6.1270     0.2220     0.9720 C.cat 1 <1>   1.0690 
 14 C        5.3600     1.6150     2.4550 C.2   1 <1>   0.2230 
 15 N        6.7340    -0.1070     2.1200 N.pl3 1 <1>  -0.5550 
 16 C        6.2510     0.7980     3.0590 C.2   1 <1>   0.1590 
 17 C        7.7060    -1.1220     2.2730 C.ar  1 <1>   0.3060 
 18 C        6.7270     0.7960     4.5000 C.3   1 <1>  -0.1080 
 19 C        8.9180    -1.0850     1.5730 C.ar  1 <1>   0.0760 
 20 C        7.4410    -2.1900     3.1180 C.ar  1 <1>  -0.1560 
 21 O        9.1440    -0.0360     0.7270 O.3   1 <1>  -0.3680 
 22 C        9.8460    -2.1070     1.7510 C.ar  1 <1>  -0.1560 
 23 C        8.3630    -3.2060     3.2820 C.ar  1 <1>  -0.1560 
 24 C       10.0150    -0.1630    -0.3950 C.3   1 <1>   0.1750 
 25 C        9.5650    -3.1620     2.6010 C.ar  1 <1>  -0.1560 
 26 C        9.4700    -1.1470    -1.4360 C.2   1 <1>   0.4430 
 27 O        8.2960    -1.4010    -1.4800 O.2   1 <1>  -0.5740 
 28 C       10.4830    -1.7650    -2.4270 C.3   1 <1>   0.0540 
 29 C       11.4160    -2.7490    -1.6990 C.3   1 <1>  -0.2460 
 30 C        9.7580    -2.5410    -3.5450 C.3   1 <1>  -0.2460 
 31 C       11.3370    -0.6720    -3.0980 C.3   1 <1>  -0.2460 
 32 H        1.6340     2.9850    -2.7210 H     1 <1>   0.0730 
 33 H        2.9490     3.8020    -3.5380 H     1 <1>   0.0730 
 34 H        2.4770     4.3070    -1.9370 H     1 <1>   0.0730 
 35 H        5.7460    -1.3670    -2.7450 H     1 <1>   0.0730 
 36 H        6.7150    -0.0820    -3.4410 H     1 <1>   0.0730 
 37 H        5.1770    -0.5140    -4.1550 H     1 <1>   0.0730 
 38 H        6.8450    -0.8520    -0.6770 H     1 <1>   0.4450 
 39 H        4.7840     2.4360     2.8560 H     1 <1>   0.1440 
 40 H        7.7970     0.9030     4.5350 H     1 <1>   0.0730 
 41 H        6.4540    -0.1240     4.9840 H     1 <1>   0.0730 
 42 H        6.2830     1.6120     5.0430 H     1 <1>   0.0730 
 43 H        6.5070    -2.2350     3.6490 H     1 <1>   0.1440 
 44 H       10.7960    -2.1080     1.2520 H     1 <1>   0.1440 
 45 H        8.1500    -4.0330     3.9400 H     1 <1>   0.1440 
 46 H       10.0920     0.8100    -0.8450 H     1 <1>   0.0730 
 47 H       10.9900    -0.4440    -0.0470 H     1 <1>   0.0730 
 48 H       10.2850    -3.9530     2.7340 H     1 <1>   0.1440 
 49 H       12.0740    -3.2320    -2.4010 H     1 <1>   0.0730 
 50 H       12.0250    -2.2490    -0.9690 H     1 <1>   0.0730 
 51 H       10.8400    -3.5110    -1.2020 H     1 <1>   0.0730 
 52 H        9.1720    -3.3420    -3.1280 H     1 <1>   0.0730 
 53 H       10.4630    -2.9660    -4.2380 H     1 <1>   0.0730 
 54 H        9.0990    -1.8890    -4.0900 H     1 <1>   0.0730 
 55 H       11.9450    -0.1500    -2.3810 H     1 <1>   0.0730 
 56 H       10.7060     0.0420    -3.5990 H     1 <1>   0.0730 
 57 H       11.9950    -1.1070    -3.8300 H     1 <1>   0.0730 
@<TRIPOS>BOND
  1   1   2  2   
  2   2   3  am  
  3   2   4  am  
  4   3   5  am  
  5   3   6  1   
  6   4   7  1   
  7   4   8  1   
  8   5   9  2   
  9   5  10  1   
 10   6  32  1   
 11   6  33  1   
 12   6  34  1   
 13   7  10  2   
 14   7  11  1   
 15   8  35  1   
 16   8  36  1   
 17   8  37  1   
 18  10  12  1   
 19  11  13  ar  
 20  11  38  1   
 21  12  13  ar  
 22  12  14  1   
 23  13  15  ar  
 24  14  16  2   
 25  14  39  1   
 26  15  16  1   
 27  15  17  1   
 28  16  18  1   
 29  17  19  ar  
 30  17  20  ar  
 31  18  40  1   
 32  18  41  1   
 33  18  42  1   
 34  19  21  1   
 35  19  22  ar  
 36  20  23  ar  
 37  20  43  1   
 38  21  24  1   
 39  22  25  ar  
 40  22  44  1   
 41  23  25  ar  
 42  23  45  1   
 43  24  26  1   
 44  24  46  1   
 45  24  47  1   
 46  25  48  1   
 47  26  27  2   
 48  26  28  1   
 49  28  29  1   
 50  28  30  1   
 51  28  31  1   
 52  29  49  1   
 53  29  50  1   
 54  29  51  1   
 55  30  52  1   
 56  30  53  1   
 57  30  54  1   
 58  31  55  1   
 59  31  56  1   
 60  31  57  1   
@<TRIPOS>SUBSTRUCTURE
  1 ****  11 GROUP 4 **** **** 0

# MOE 2024.06 (io_trps.svl 2023.06)
