@<TRIPOS>MOLECULE
1-(3,4-Dichloro-benzenesulfonyl)-pyrrolidine-2-carboxylic acid amide
31 32 1 0 0 
SMALL
USER_CHARGES


@<TRIPOS>ATOM
  1 CL       0.3940     0.7340     1.1920 Cl    1 <1>  -0.1770 
  2 C       -0.9280     1.5230     0.3650 C.ar  1 <1>   0.1770 
  3 C       -1.4580     0.9910    -0.7980 C.ar  1 <1>   0.1770 
  4 C       -1.4380     2.6940     0.8960 C.ar  1 <1>  -0.1500 
  5 CL      -0.8250    -0.4890    -1.4780 Cl    1 <1>  -0.1770 
  6 C       -2.5040     1.6290    -1.4360 C.ar  1 <1>  -0.1500 
  7 C       -2.4850     3.3600     0.2650 C.ar  1 <1>  -0.0090 
  8 C       -3.0100     2.8040    -0.9000 C.ar  1 <1>  -0.1500 
  9 S       -3.1530     4.9050     0.9500 S.o2  1 <1>   1.4470 
 10 O       -2.1740     5.5690     1.7870 O.2   1 <1>  -0.6500 
 11 O       -4.4560     4.6220     1.5060 O.2   1 <1>  -0.6500 
 12 N       -3.4130     5.9000    -0.3980 N.am  1 <1>  -0.8490 
 13 C       -2.2090     6.4290    -1.0930 C.3   1 <1>   0.3370 
 14 C       -4.2770     7.0440    -0.0680 C.3   1 <1>   0.1960 
 15 C       -0.8690     5.6450    -1.0620 C.2   1 <1>   0.5690 
 16 C       -2.0970     7.8790    -0.6340 C.3   1 <1>  -0.1600 
 17 C       -3.5510     8.3070    -0.5200 C.3   1 <1>  -0.1600 
 18 O       -0.5550     4.9800    -2.0150 O.2   1 <1>  -0.5700 
 19 N       -0.0410     5.6850     0.0040 N.am  1 <1>  -0.8000 
 20 H       -1.0130     3.0890     1.8020 H     1 <1>   0.1500 
 21 H       -2.9140     1.2130    -2.3390 H     1 <1>   0.1500 
 22 H       -3.8260     3.3020    -1.3980 H     1 <1>   0.1500 
 23 H       -2.4760     6.4720    -2.1350 H     1 <1>   0.0800 
 24 H       -4.4510     7.1020     0.9950 H     1 <1>   0.0800 
 25 H       -5.2290     6.9440    -0.5630 H     1 <1>   0.0800 
 26 H       -1.5470     8.4790    -1.3370 H     1 <1>   0.0800 
 27 H       -1.6190     7.9290     0.3290 H     1 <1>   0.0800 
 28 H       -3.6870     9.1160     0.1760 H     1 <1>   0.0800 
 29 H       -3.9280     8.6060    -1.4820 H     1 <1>   0.0800 
 30 H        0.8340     5.1590    -0.0100 H     1 <1>   0.3700 
 31 H       -0.3490     6.0400     0.9190 H     1 <1>   0.3700 
@<TRIPOS>BOND
  1   1   2  1   
  2   2   3  ar  
  3   2   4  ar  
  4   3   5  1   
  5   3   6  ar  
  6   4   7  ar  
  7   4  20  1   
  8   6   8  ar  
  9   6  21  1   
 10   7   8  ar  
 11   7   9  1   
 12   8  22  1   
 13   9  10  2   
 14   9  11  2   
 15   9  12  am  
 16  12  13  1   
 17  12  14  1   
 18  13  15  1   
 19  13  16  1   
 20  13  23  1   
 21  14  17  1   
 22  14  24  1   
 23  14  25  1   
 24  15  18  2   
 25  15  19  am  
 26  16  17  1   
 27  16  26  1   
 28  16  27  1   
 29  17  28  1   
 30  17  29  1   
 31  19  30  1   
 32  19  31  1   
@<TRIPOS>SUBSTRUCTURE
  1 ****   7 GROUP 4 **** **** 0

# MOE 2024.06 (io_trps.svl 2023.06)
