@<TRIPOS>MOLECULE
6-(5-Methyl-2-oxo-imidazolidin-4-yl)-hexanoic acid (2,6-dimethyl-phenyl)-amide
50 51 1 0 0 
SMALL
USER_CHARGES


@<TRIPOS>ATOM
  1 O        2.3260     0.7070     0.5690 O.2   1 <1>  -0.5700 
  2 C        3.0860    -0.2280     0.4570 C.2   1 <1>   0.6900 
  3 N        3.3990    -0.8080    -0.7060 N.am  1 <1>  -0.7300 
  4 N        3.6310    -0.8830     1.4890 N.am  1 <1>  -0.7300 
  5 C        4.1260    -2.0710    -0.5000 C.3   1 <1>   0.2200 
  6 C        4.2380    -2.1470     1.0490 C.3   1 <1>   0.2200 
  7 C        5.4760    -1.9790    -1.2200 C.3   1 <1>  -0.1600 
  8 C        3.4470    -3.3060     1.6530 C.3   1 <1>  -0.2400 
  9 C        6.3030    -3.2720    -1.0950 C.3   1 <1>  -0.1600 
 10 C        7.5960    -3.2390    -1.9260 C.3   1 <1>  -0.1600 
 11 C        8.5440    -2.1080    -1.5020 C.3   1 <1>  -0.1600 
 12 C        9.9120    -2.2220    -2.1920 C.3   1 <1>  -0.0990 
 13 C       10.8030    -1.0190    -1.9180 C.2   1 <1>   0.5690 
 14 O       10.9380    -0.1870    -2.7780 O.2   1 <1>  -0.5700 
 15 N       11.4340    -0.8600    -0.7270 N.am  1 <1>  -0.5470 
 16 C       11.3890    -1.6600     0.4210 C.ar  1 <1>   0.1170 
 17 C       10.5650    -1.2930     1.4880 C.ar  1 <1>  -0.1430 
 18 C       12.1670    -2.8170     0.5160 C.ar  1 <1>  -0.1430 
 19 C       10.4960    -2.0980     2.6120 C.ar  1 <1>  -0.1500 
 20 C        9.7380    -0.0120     1.4470 C.3   1 <1>  -0.0970 
 21 C       12.0800    -3.6110     1.6470 C.ar  1 <1>  -0.1500 
 22 C       13.1320    -3.2310    -0.5910 C.3   1 <1>  -0.0970 
 23 C       11.2460    -3.2570     2.6910 C.ar  1 <1>  -0.1500 
 24 H        2.8510    -0.6080    -1.5410 H     1 <1>   0.3700 
 25 H        3.2100    -0.7790     2.4090 H     1 <1>   0.3700 
 26 H        3.5480    -2.8940    -0.8860 H     1 <1>   0.0800 
 27 H        5.2660    -2.1850     1.3670 H     1 <1>   0.0800 
 28 H        6.0240    -1.1500    -0.8080 H     1 <1>   0.0800 
 29 H        5.2970    -1.7810    -2.2620 H     1 <1>   0.0800 
 30 H        2.4120    -3.2490     1.3630 H     1 <1>   0.0800 
 31 H        3.5180    -3.2840     2.7250 H     1 <1>   0.0800 
 32 H        3.8490    -4.2410     1.3070 H     1 <1>   0.0800 
 33 H        5.7090    -4.1050    -1.4310 H     1 <1>   0.0800 
 34 H        6.5590    -3.4500    -0.0650 H     1 <1>   0.0800 
 35 H        7.3520    -3.1300    -2.9690 H     1 <1>   0.0800 
 36 H        8.0990    -4.1830    -1.8050 H     1 <1>   0.0800 
 37 H        8.6830    -2.1460    -0.4360 H     1 <1>   0.0800 
 38 H        8.1130    -1.1540    -1.7540 H     1 <1>   0.0800 
 39 H        9.7700    -2.2940    -3.2550 H     1 <1>   0.0800 
 40 H       10.4070    -3.1160    -1.8660 H     1 <1>   0.0800 
 41 H       11.9450     0.0190    -0.6520 H     1 <1>   0.3700 
 42 H        9.8600    -1.8290     3.4370 H     1 <1>   0.1500 
 43 H        9.1380     0.0230     0.5560 H     1 <1>   0.0800 
 44 H       10.3910     0.8420     1.4550 H     1 <1>   0.0800 
 45 H        9.0820     0.0540     2.2950 H     1 <1>   0.0800 
 46 H       12.6670    -4.5090     1.7280 H     1 <1>   0.1500 
 47 H       13.8800    -3.9040    -0.2100 H     1 <1>   0.0800 
 48 H       12.6020    -3.7270    -1.3820 H     1 <1>   0.0800 
 49 H       13.6360    -2.3720    -0.9930 H     1 <1>   0.0800 
 50 H       11.1850    -3.8800     3.5670 H     1 <1>   0.1500 
@<TRIPOS>BOND
  1   1   2  2   
  2   2   3  am  
  3   2   4  am  
  4   3   5  1   
  5   3  24  1   
  6   4   6  1   
  7   4  25  1   
  8   5   6  1   
  9   5   7  1   
 10   5  26  1   
 11   6   8  1   
 12   6  27  1   
 13   7   9  1   
 14   7  28  1   
 15   7  29  1   
 16   8  30  1   
 17   8  31  1   
 18   8  32  1   
 19   9  10  1   
 20   9  33  1   
 21   9  34  1   
 22  10  11  1   
 23  10  35  1   
 24  10  36  1   
 25  11  12  1   
 26  11  37  1   
 27  11  38  1   
 28  12  13  1   
 29  12  39  1   
 30  12  40  1   
 31  13  14  2   
 32  13  15  am  
 33  15  16  1   
 34  15  41  1   
 35  16  17  ar  
 36  16  18  ar  
 37  17  19  ar  
 38  17  20  1   
 39  18  21  ar  
 40  18  22  1   
 41  19  23  ar  
 42  19  42  1   
 43  20  43  1   
 44  20  44  1   
 45  20  45  1   
 46  21  23  ar  
 47  21  46  1   
 48  22  47  1   
 49  22  48  1   
 50  22  49  1   
 51  23  50  1   
@<TRIPOS>SUBSTRUCTURE
  1 ****  11 GROUP 4 **** **** 0

# MOE 2024.06 (io_trps.svl 2023.06)
