@<TRIPOS>MOLECULE
3-[(Furan-2-carbonyl)-amino]-4-piperidin-1-yl-benzoic acid methyl ester
44 46 1 0 0 
SMALL
USER_CHARGES


@<TRIPOS>ATOM
  1 O       -0.7250    -0.0420     0.9100 O.2   1 <1>  -0.5700 
  2 C       -0.5800    -1.0970     0.3250 C.2   1 <1>   0.6340 
  3 O        0.6370    -1.4100    -0.1370 O.3   1 <1>  -0.4300 
  4 C       -1.6570    -2.0390     0.1060 C.ar  1 <1>   0.0860 
  5 C        1.7440    -0.5470     0.0320 C.3   1 <1>   0.0400 
  6 C       -1.4680    -3.2360    -0.5900 C.ar  1 <1>  -0.1500 
  7 C       -2.9440    -1.7880     0.5860 C.ar  1 <1>  -0.1500 
  8 C       -2.4910    -4.1480    -0.7850 C.ar  1 <1>   0.1170 
  9 C       -3.9810    -2.6780     0.3820 C.ar  1 <1>  -0.1500 
 10 N       -2.2920    -5.3440    -1.4900 N.am  1 <1>  -0.5470 
 11 C       -3.7800    -3.8650    -0.3080 C.ar  1 <1>   0.1000 
 12 C       -1.2600    -6.2340    -1.5550 C.2   1 <1>   0.7150 
 13 N       -4.8380    -4.7550    -0.5180 N.pl3 1 <1>  -0.8380 
 14 O       -1.3840    -7.1250    -2.3740 O.2   1 <1>  -0.5700 
 15 C       -0.1110    -6.1660    -0.6760 C.2   1 <1>   0.0550 
 16 C       -4.9220    -5.9970     0.2970 C.3   1 <1>   0.2090 
 17 C       -6.0980    -4.3040    -1.1720 C.3   1 <1>   0.2090 
 18 O        1.0920    -6.5540    -1.0920 O.3   1 <1>  -0.2800 
 19 C        0.0030    -5.7500     0.6190 C.2   1 <1>  -0.1500 
 20 C       -6.0560    -5.8820     1.3190 C.3   1 <1>  -0.1600 
 21 C       -7.2460    -4.2300    -0.1570 C.3   1 <1>  -0.1600 
 22 C        1.9560    -6.3940    -0.1160 C.2   1 <1>  -0.0100 
 23 C        1.3430    -5.8960     0.9780 C.2   1 <1>  -0.1500 
 24 C       -7.3900    -5.5280     0.6490 C.3   1 <1>  -0.1600 
 25 H        2.6050    -1.0060    -0.4190 H     1 <1>   0.0800 
 26 H        1.9100    -0.3960     1.0840 H     1 <1>   0.0800 
 27 H        1.5290     0.3920    -0.4490 H     1 <1>   0.0800 
 28 H       -0.4950    -3.4520    -0.9950 H     1 <1>   0.1500 
 29 H       -3.1310    -0.8760     1.1280 H     1 <1>   0.1500 
 30 H       -4.9580    -2.4560     0.7660 H     1 <1>   0.1500 
 31 H       -3.1470    -5.6900    -1.9280 H     1 <1>   0.3700 
 32 H       -3.9880    -6.1630     0.8070 H     1 <1>   0.0800 
 33 H       -5.1020    -6.8330    -0.3570 H     1 <1>   0.0800 
 34 H       -6.3500    -5.0020    -1.9510 H     1 <1>   0.0800 
 35 H       -5.9470    -3.3390    -1.6260 H     1 <1>   0.0800 
 36 H       -0.7750    -5.3800     1.2620 H     1 <1>   0.1500 
 37 H       -5.7960    -5.1230     2.0370 H     1 <1>   0.0800 
 38 H       -6.1520    -6.8140     1.8470 H     1 <1>   0.0800 
 39 H       -8.1630    -4.0260    -0.6790 H     1 <1>   0.0800 
 40 H       -7.0670    -3.4100     0.5140 H     1 <1>   0.0800 
 41 H        2.9850    -6.6600    -0.2820 H     1 <1>   0.1500 
 42 H        1.7710    -5.6540     1.9350 H     1 <1>   0.1500 
 43 H       -8.1550    -5.4090     1.3980 H     1 <1>   0.0800 
 44 H       -7.6860    -6.3280    -0.0080 H     1 <1>   0.0800 
@<TRIPOS>BOND
  1   1   2  2   
  2   2   3  1   
  3   2   4  1   
  4   3   5  1   
  5   4   6  ar  
  6   4   7  ar  
  7   5  25  1   
  8   5  26  1   
  9   5  27  1   
 10   6   8  ar  
 11   6  28  1   
 12   7   9  ar  
 13   7  29  1   
 14   8  10  1   
 15   8  11  ar  
 16   9  11  ar  
 17   9  30  1   
 18  10  12  am  
 19  10  31  1   
 20  11  13  1   
 21  12  14  2   
 22  12  15  1   
 23  13  16  1   
 24  13  17  1   
 25  15  18  1   
 26  15  19  2   
 27  16  20  1   
 28  16  32  1   
 29  16  33  1   
 30  17  21  1   
 31  17  34  1   
 32  17  35  1   
 33  18  22  1   
 34  19  23  1   
 35  19  36  1   
 36  20  24  1   
 37  20  37  1   
 38  20  38  1   
 39  21  24  1   
 40  21  39  1   
 41  21  40  1   
 42  22  23  2   
 43  22  41  1   
 44  23  42  1   
 45  24  43  1   
 46  24  44  1   
@<TRIPOS>SUBSTRUCTURE
  1 ****   8 GROUP 4 **** **** 0

# MOE 2024.06 (io_trps.svl 2023.06)
