@<TRIPOS>MOLECULE
1-[2-(4-Fluoro-phenyl)-ethyl]-5-oxo-pyrrolidine-3-carboxylic acid (pyridin-3-ylm
45 47 1 0 0 
SMALL
USER_CHARGES


@<TRIPOS>ATOM
  1 F        0.8400     0.2150    -0.0570 F     1 <1>  -0.1900 
  2 C        2.0800     0.5920     0.1010 C.ar  1 <1>   0.1900 
  3 C        2.4230     1.8970    -0.1920 C.ar  1 <1>  -0.1500 
  4 C        3.0030    -0.3300     0.5550 C.ar  1 <1>  -0.1500 
  5 C        3.7400     2.2910    -0.0230 C.ar  1 <1>  -0.1500 
  6 C        4.3170     0.0760     0.7210 C.ar  1 <1>  -0.1500 
  7 C        4.6890     1.3830     0.4330 C.ar  1 <1>  -0.1430 
  8 C        6.1360     1.8120     0.6140 C.3   1 <1>  -0.0160 
  9 C        6.9580     1.4290    -0.6170 C.3   1 <1>   0.1400 
 10 N        8.3700     1.8400    -0.4360 N.am  1 <1>  -0.6600 
 11 C        9.3570     1.0590     0.0510 C.2   1 <1>   0.5690 
 12 C        8.8300     3.2070    -0.7400 C.3   1 <1>   0.1400 
 13 O        9.2480    -0.0930     0.3920 O.2   1 <1>  -0.5700 
 14 C       10.6490     1.8200     0.1360 C.3   1 <1>  -0.0990 
 15 C       10.3640     3.0920    -0.6900 C.3   1 <1>  -0.0190 
 16 C       11.0500     4.3470    -0.1700 C.2   1 <1>   0.5690 
 17 O       10.4390     5.3860    -0.1220 O.2   1 <1>  -0.5700 
 18 N       12.3490     4.2790     0.2110 N.am  1 <1>  -0.7300 
 19 C       13.1380     5.4320     0.6790 C.3   1 <1>   0.2840 
 20 C       14.5840     5.2040     0.2930 C.ar  1 <1>  -0.1430 
 21 C       15.0050     5.4610    -1.0040 C.ar  1 <1>   0.1600 
 22 C       15.5040     4.7360     1.2110 C.ar  1 <1>  -0.1500 
 23 N       16.2400     5.2920    -1.4470 N.ar  1 <1>  -0.6200 
 24 C       16.7970     4.5590     0.7660 C.ar  1 <1>  -0.1500 
 25 C       17.1070     4.8470    -0.5520 C.ar  1 <1>   0.1600 
 26 H        1.6750     2.5850    -0.5430 H     1 <1>   0.1500 
 27 H        2.6990    -1.3370     0.7730 H     1 <1>   0.1500 
 28 H        4.0220     3.3050    -0.2470 H     1 <1>   0.1500 
 29 H        5.0510    -0.6300     1.0730 H     1 <1>   0.1500 
 30 H        6.5480     1.3260     1.4810 H     1 <1>   0.0800 
 31 H        6.1840     2.8750     0.7680 H     1 <1>   0.0800 
 32 H        6.5530     1.8980    -1.4970 H     1 <1>   0.0800 
 33 H        6.9160     0.3620    -0.7550 H     1 <1>   0.0800 
 34 H        8.4590     3.8790     0.0150 H     1 <1>   0.0800 
 35 H        8.4930     3.5260    -1.7120 H     1 <1>   0.0800 
 36 H       11.4590     1.2440    -0.2720 H     1 <1>   0.0800 
 37 H       10.8360     2.0510     1.1690 H     1 <1>   0.0800 
 38 H       10.7050     2.9290    -1.6960 H     1 <1>   0.0800 
 39 H       12.8770     3.4080     0.1340 H     1 <1>   0.3700 
 40 H       13.0420     5.5200     1.7480 H     1 <1>   0.0800 
 41 H       12.7700     6.3400     0.2310 H     1 <1>   0.0800 
 42 H       14.2840     5.8240    -1.7180 H     1 <1>   0.1500 
 43 H       15.2330     4.5200     2.2300 H     1 <1>   0.1500 
 44 H       17.5610     4.2000     1.4320 H     1 <1>   0.1500 
 45 H       18.1210     4.7050    -0.8870 H     1 <1>   0.1500 
@<TRIPOS>BOND
  1   1   2  1   
  2   2   3  ar  
  3   2   4  ar  
  4   3   5  ar  
  5   3  26  1   
  6   4   6  ar  
  7   4  27  1   
  8   5   7  ar  
  9   5  28  1   
 10   6   7  ar  
 11   6  29  1   
 12   7   8  1   
 13   8   9  1   
 14   8  30  1   
 15   8  31  1   
 16   9  10  1   
 17   9  32  1   
 18   9  33  1   
 19  10  11  am  
 20  10  12  1   
 21  11  13  2   
 22  11  14  1   
 23  12  15  1   
 24  12  34  1   
 25  12  35  1   
 26  14  15  1   
 27  14  36  1   
 28  14  37  1   
 29  15  16  1   
 30  15  38  1   
 31  16  17  2   
 32  16  18  am  
 33  18  19  1   
 34  18  39  1   
 35  19  20  1   
 36  19  40  1   
 37  19  41  1   
 38  20  21  ar  
 39  20  22  ar  
 40  21  23  ar  
 41  21  42  1   
 42  22  24  ar  
 43  22  43  1   
 44  23  25  ar  
 45  24  25  ar  
 46  24  44  1   
 47  25  45  1   
@<TRIPOS>SUBSTRUCTURE
  1 ****  12 GROUP 4 **** **** 0

# MOE 2024.06 (io_trps.svl 2023.06)
