@<TRIPOS>MOLECULE
1-tert-Butyl-1H-pyrrole-3-carbaldehyde
24 24 1 0 0 
SMALL
USER_CHARGES


@<TRIPOS>ATOM
  1 O       -0.8310     0.2120    -1.3020 O.2   1 <1>  -0.5700 
  2 C       -0.2310     1.1050    -0.7550 C.2   1 <1>   0.5960 
  3 C       -0.6680     2.4690    -0.6660 C.2   1 <1>  -0.0860 
  4 C       -0.0500     3.5380    -0.0660 C.2   1 <1>  -0.3020 
  5 C       -1.8610     2.9900    -1.1990 C.2   1 <1>  -0.1500 
  6 N       -0.7900     4.6700    -0.2000 N.pl3 1 <1>   0.0480 
  7 C       -1.9040     4.3120    -0.9030 C.2   1 <1>  -0.3020 
  8 C       -0.4910     6.0570     0.3000 C.3   1 <1>   0.2560 
  9 C        0.8490     6.1020     1.0520 C.3   1 <1>  -0.2400 
 10 C       -0.4200     7.0200    -0.8940 C.3   1 <1>  -0.2400 
 11 C       -1.6090     6.4990     1.2570 C.3   1 <1>  -0.2400 
 12 H        0.7100     0.8680    -0.2920 H     1 <1>   0.0600 
 13 H        0.8920     3.5200     0.4510 H     1 <1>   0.1500 
 14 H       -2.5850     2.4050    -1.7410 H     1 <1>   0.1500 
 15 H       -2.6740     5.0180    -1.1580 H     1 <1>   0.1500 
 16 H        1.0460     7.0990     1.4030 H     1 <1>   0.0800 
 17 H        0.8260     5.4480     1.9060 H     1 <1>   0.0800 
 18 H        1.6560     5.8120     0.4030 H     1 <1>   0.0800 
 19 H        0.3450     6.7040    -1.5810 H     1 <1>   0.0800 
 20 H       -0.1870     8.0150    -0.5600 H     1 <1>   0.0800 
 21 H       -1.3600     7.0540    -1.4140 H     1 <1>   0.0800 
 22 H       -1.6810     5.8160     2.0850 H     1 <1>   0.0800 
 23 H       -2.5560     6.5300     0.7490 H     1 <1>   0.0800 
 24 H       -1.4050     7.4810     1.6440 H     1 <1>   0.0800 
@<TRIPOS>BOND
  1   1   2  2   
  2   2   3  1   
  3   2  12  1   
  4   3   4  2   
  5   3   5  1   
  6   4   6  1   
  7   4  13  1   
  8   5   7  2   
  9   5  14  1   
 10   6   7  1   
 11   6   8  1   
 12   7  15  1   
 13   8   9  1   
 14   8  10  1   
 15   8  11  1   
 16   9  16  1   
 17   9  17  1   
 18   9  18  1   
 19  10  19  1   
 20  10  20  1   
 21  10  21  1   
 22  11  22  1   
 23  11  23  1   
 24  11  24  1   
@<TRIPOS>SUBSTRUCTURE
  1 ****   6 GROUP 4 **** **** 0

# MOE 2024.06 (io_trps.svl 2023.06)
