@<TRIPOS>MOLECULE
3-Ethyl-8-(2-methoxy-5-methyl-phenyl)-1,6-dimethyl-5,6,7,8-tetrahydro-1H-1,3,4b,
54 57 1 0 0 
SMALL
USER_CHARGES


@<TRIPOS>ATOM
  1 O        0.6000     1.5960    -1.4810 O.2   1 <1>  -0.5740 
  2 C        1.6540     1.7610    -0.9030 C.2   1 <1>   0.6870 
  3 N        1.9340     2.9780    -0.2860 N.am  1 <1>  -0.4250 
  4 N        2.5800     0.7260    -0.8540 N.am  1 <1>  -0.4410 
  5 C        3.1190     3.1760     0.4100 C.2   1 <1>   0.7000 
  6 C        0.9510     4.0960    -0.3920 C.3   1 <1>   0.1330 
  7 C        3.7490     0.9330    -0.1510 C.2   1 <1>   0.4210 
  8 C        2.3100    -0.5830    -1.5200 C.3   1 <1>   0.0530 
  9 O        3.3600     4.2390     0.9590 O.2   1 <1>  -0.5740 
 10 C        4.0530     2.0950     0.4670 C.2   1 <1>   0.2710 
 11 C        1.2570     4.9400    -1.6280 C.3   1 <1>  -0.2460 
 12 N        4.7730     0.0590     0.0440 N.pl3 1 <1>  -0.7030 
 13 N        5.3180     1.9090     1.0430 N.pl3 1 <1>  -0.7670 
 14 C        5.7110     0.6730     0.7600 C.cat 1 <1>   1.0690 
 15 C        6.1210     2.8970     1.7920 C.3   1 <1>   0.3490 
 16 N        6.8860     0.1580     1.1730 N.pl3 1 <1>  -0.5790 
 17 C        7.6050     2.4970     1.7170 C.3   1 <1>  -0.0870 
 18 C        7.3100    -1.1520     0.8610 C.ar  1 <1>   0.3050 
 19 C        7.7970     0.9960     2.0050 C.3   1 <1>   0.1610 
 20 C        8.4510     3.3430     2.6810 C.3   1 <1>  -0.2460 
 21 C        7.4240    -1.5990    -0.4640 C.ar  1 <1>   0.0750 
 22 C        7.6160    -2.0280     1.8950 C.ar  1 <1>  -0.1570 
 23 O        7.1120    -0.7310    -1.4700 O.3   1 <1>  -0.3680 
 24 C        7.8400    -2.9010    -0.7190 C.ar  1 <1>  -0.1570 
 25 C        8.0280    -3.3240     1.6380 C.ar  1 <1>  -0.1500 
 26 C        7.5900    -0.9460    -2.7840 C.3   1 <1>   0.0330 
 27 C        8.1390    -3.7540     0.3280 C.ar  1 <1>  -0.1570 
 28 C        8.3610    -4.2730     2.7760 C.3   1 <1>  -0.1040 
 29 H        0.9950     4.7130     0.4900 H     1 <1>   0.0730 
 30 H       -0.0500     3.7030    -0.4590 H     1 <1>   0.0730 
 31 H        1.5500    -0.4770    -2.2750 H     1 <1>   0.0730 
 32 H        1.9710    -1.2980    -0.7900 H     1 <1>   0.0730 
 33 H        3.2020    -0.9510    -1.9950 H     1 <1>   0.0730 
 34 H        2.2390     5.3720    -1.5590 H     1 <1>   0.0730 
 35 H        0.5420     5.7400    -1.7010 H     1 <1>   0.0730 
 36 H        1.1840     4.3420    -2.5200 H     1 <1>   0.0730 
 37 H        4.9170    -0.8600    -0.3670 H     1 <1>   0.4450 
 38 H        5.7890     2.9150     2.8170 H     1 <1>   0.0730 
 39 H        5.9850     3.8800     1.3720 H     1 <1>   0.0730 
 40 H        7.9570     2.6960     0.7190 H     1 <1>   0.0730 
 41 H        8.8200     0.7230     1.8010 H     1 <1>   0.0730 
 42 H        7.5990     0.7960     3.0450 H     1 <1>   0.0730 
 43 H        8.1500     3.1850     3.7020 H     1 <1>   0.0730 
 44 H        8.3470     4.3900     2.4520 H     1 <1>   0.0730 
 45 H        9.4930     3.0860     2.5900 H     1 <1>   0.0730 
 46 H        7.5300    -1.6970     2.9140 H     1 <1>   0.1430 
 47 H        7.9360    -3.2780    -1.7210 H     1 <1>   0.1430 
 48 H        7.3740    -0.0700    -3.3690 H     1 <1>   0.0730 
 49 H        7.0900    -1.7980    -3.2090 H     1 <1>   0.0730 
 50 H        8.6540    -1.1050    -2.7500 H     1 <1>   0.0730 
 51 H        8.4620    -4.7610     0.1190 H     1 <1>   0.1430 
 52 H        7.9260    -3.9350     3.7000 H     1 <1>   0.0730 
 53 H        9.4280    -4.3340     2.8990 H     1 <1>   0.0730 
 54 H        7.9820    -5.2560     2.5640 H     1 <1>   0.0730 
@<TRIPOS>BOND
  1   1   2  2   
  2   2   3  am  
  3   2   4  am  
  4   3   5  am  
  5   3   6  1   
  6   4   7  1   
  7   4   8  1   
  8   5   9  2   
  9   5  10  1   
 10   6  11  1   
 11   6  29  1   
 12   6  30  1   
 13   7  10  2   
 14   7  12  1   
 15   8  31  1   
 16   8  32  1   
 17   8  33  1   
 18  10  13  1   
 19  11  34  1   
 20  11  35  1   
 21  11  36  1   
 22  12  14  ar  
 23  12  37  1   
 24  13  14  ar  
 25  13  15  1   
 26  14  16  ar  
 27  15  17  1   
 28  15  38  1   
 29  15  39  1   
 30  16  18  1   
 31  16  19  1   
 32  17  19  1   
 33  17  20  1   
 34  17  40  1   
 35  18  21  ar  
 36  18  22  ar  
 37  19  41  1   
 38  19  42  1   
 39  20  43  1   
 40  20  44  1   
 41  20  45  1   
 42  21  23  1   
 43  21  24  ar  
 44  22  25  ar  
 45  22  46  1   
 46  23  26  1   
 47  24  27  ar  
 48  24  47  1   
 49  25  27  ar  
 50  25  28  1   
 51  26  48  1   
 52  26  49  1   
 53  26  50  1   
 54  27  51  1   
 55  28  52  1   
 56  28  53  1   
 57  28  54  1   
@<TRIPOS>SUBSTRUCTURE
  1 ****  14 GROUP 4 **** **** 0

# MOE 2024.06 (io_trps.svl 2023.06)
