@<TRIPOS>MOLECULE
2-[(Z)-Cyclopentylimino]-6-methyl-10-oxo-1,10-dihydro-2H-1,9,10a-triaza-anthrace
58 62 1 0 0 
SMALL
USER_CHARGES


@<TRIPOS>ATOM
  1 O        0.1830    -0.1910    -0.6690 O.2   1 <1>  -0.5700 
  2 C        0.1620    -1.3680    -0.3870 C.2   1 <1>   0.8650 
  3 N       -1.0840    -1.9920    -0.1960 N.pl3 1 <1>  -0.5760 
  4 C        1.3790    -2.1020    -0.2470 C.ar  1 <1>   0.0860 
  5 C       -1.1370    -3.3010     0.1480 C.cat 1 <1>   0.7390 
  6 C       -2.2610    -1.2920    -0.3520 C.2   1 <1>   0.1910 
  7 C        1.2500    -3.4380     0.1100 C.ar  1 <1>   0.6590 
  8 C        2.6640    -1.6070    -0.4370 C.ar  1 <1>  -0.1500 
  9 N        0.0150    -3.9700     0.2950 N.pl3 1 <1>  -0.6530 
 10 C       -2.3750    -3.9270     0.3440 C.2   1 <1>  -0.1800 
 11 C       -3.4820    -1.8830    -0.1670 C.2   1 <1>  -0.1380 
 12 N        2.2370    -4.2770     0.2940 N.ar  1 <1>  -0.6200 
 13 C        3.7420    -2.4590    -0.2640 C.ar  1 <1>   0.0860 
 14 C       -3.5460    -3.2350     0.1900 C.2   1 <1>  -0.1500 
 15 C       -4.7820    -1.1130    -0.3380 C.3   1 <1>  -0.1020 
 16 C        3.4620    -3.7960     0.1080 C.ar  1 <1>   0.4100 
 17 C        5.0970    -1.9990    -0.4670 C.2   1 <1>   0.5440 
 18 N        4.4780    -4.6810     0.3030 N.pl3 1 <1>  -0.8690 
 19 O        5.9140    -2.6960    -1.0390 O.2   1 <1>  -0.5700 
 20 N        5.4880    -0.7630    -0.0330 N.am  1 <1>  -0.7300 
 21 C        4.4040    -6.1380     0.5060 C.3   1 <1>   0.2890 
 22 C        6.8410    -0.1950    -0.1930 C.3   1 <1>   0.2200 
 23 C        5.6000    -6.5590     1.3500 C.3   1 <1>  -0.1600 
 24 C        4.6620    -6.8240    -0.8290 C.3   1 <1>  -0.1600 
 25 C        7.4870    -0.0670     1.1810 C.3   1 <1>  -0.1600 
 26 C        6.7170     1.2500    -0.6580 C.3   1 <1>  -0.1600 
 27 C        6.7860    -6.6480     0.3810 C.3   1 <1>  -0.1600 
 28 C        6.1820    -6.7890    -1.0230 C.3   1 <1>  -0.1600 
 29 C        6.9340     1.2280     1.7860 C.3   1 <1>  -0.1600 
 30 C        6.4470     2.0780     0.6050 C.3   1 <1>  -0.1600 
 31 H       -2.2090    -0.2480    -0.6280 H     1 <1>   0.1500 
 32 H        2.8180    -0.5790    -0.7270 H     1 <1>   0.1500 
 33 H        0.0280    -4.9580     0.5540 H     1 <1>   0.4500 
 34 H       -2.3980    -4.9660     0.6170 H     1 <1>   0.1500 
 35 H       -4.5050    -3.7070     0.3390 H     1 <1>   0.1500 
 36 H       -5.3820    -1.5660    -1.1070 H     1 <1>   0.0800 
 37 H       -4.5970    -0.0890    -0.6110 H     1 <1>   0.0800 
 38 H       -5.3410    -1.1210     0.5820 H     1 <1>   0.0800 
 39 H        5.4050    -4.3920    -0.0520 H     1 <1>   0.4000 
 40 H        4.8920    -0.2050     0.5770 H     1 <1>   0.3700 
 41 H        3.4670    -6.4270     0.9510 H     1 <1>   0.0800 
 42 H        7.4340    -0.7900    -0.8690 H     1 <1>   0.0800 
 43 H        5.4050    -7.5370     1.7530 H     1 <1>   0.0800 
 44 H        5.7800    -5.8800     2.1640 H     1 <1>   0.0800 
 45 H        4.1320    -6.3530    -1.6370 H     1 <1>   0.0800 
 46 H        4.3430    -7.8480    -0.7550 H     1 <1>   0.0800 
 47 H        8.5490     0.0370     1.0460 H     1 <1>   0.0800 
 48 H        7.3050    -0.9290     1.7990 H     1 <1>   0.0800 
 49 H        5.9580     1.3740    -1.4110 H     1 <1>   0.0800 
 50 H        7.6620     1.5520    -1.0740 H     1 <1>   0.0800 
 51 H        7.4160    -7.4860     0.6230 H     1 <1>   0.0800 
 52 H        7.3720    -5.7460     0.4320 H     1 <1>   0.0800 
 53 H        6.4520    -5.9310    -1.6170 H     1 <1>   0.0800 
 54 H        6.5320    -7.6780    -1.5190 H     1 <1>   0.0800 
 55 H        7.6940     1.7410     2.3520 H     1 <1>   0.0800 
 56 H        6.1080     1.0060     2.4400 H     1 <1>   0.0800 
 57 H        5.3920     2.2690     0.7030 H     1 <1>   0.0800 
 58 H        6.9650     3.0210     0.5600 H     1 <1>   0.0800 
@<TRIPOS>BOND
  1   1   2  2   
  2   2   3  1   
  3   2   4  1   
  4   3   5  ar  
  5   3   6  1   
  6   4   7  ar  
  7   4   8  ar  
  8   5   9  ar  
  9   5  10  1   
 10   6  11  2   
 11   6  31  1   
 12   7   9  1   
 13   7  12  ar  
 14   8  13  ar  
 15   8  32  1   
 16   9  33  1   
 17  10  14  2   
 18  10  34  1   
 19  11  14  1   
 20  11  15  1   
 21  12  16  ar  
 22  13  16  ar  
 23  13  17  1   
 24  14  35  1   
 25  15  36  1   
 26  15  37  1   
 27  15  38  1   
 28  16  18  1   
 29  17  19  2   
 30  17  20  am  
 31  18  21  1   
 32  18  39  1   
 33  20  22  1   
 34  20  40  1   
 35  21  23  1   
 36  21  24  1   
 37  21  41  1   
 38  22  25  1   
 39  22  26  1   
 40  22  42  1   
 41  23  27  1   
 42  23  43  1   
 43  23  44  1   
 44  24  28  1   
 45  24  45  1   
 46  24  46  1   
 47  25  29  1   
 48  25  47  1   
 49  25  48  1   
 50  26  30  1   
 51  26  49  1   
 52  26  50  1   
 53  27  28  1   
 54  27  51  1   
 55  27  52  1   
 56  28  53  1   
 57  28  54  1   
 58  29  30  1   
 59  29  55  1   
 60  29  56  1   
 61  30  57  1   
 62  30  58  1   
@<TRIPOS>SUBSTRUCTURE
  1 ****   8 GROUP 4 **** **** 0

# MOE 2024.06 (io_trps.svl 2023.06)
