@<TRIPOS>MOLECULE
Cyclohexanecarboxylic acid (3-oxo-3,4-dihydro-2H-benzo[1,4]thiazin-6-yl)-amide
38 40 1 0 0 
SMALL
USER_CHARGES


@<TRIPOS>ATOM
  1 S       -0.1830    -0.1480     0.6630 S.3   1 <1>  -0.3320 
  2 C       -0.0840     1.6300     0.3940 C.ar  1 <1>   0.1020 
  3 C       -1.4200    -0.7220    -0.5960 C.3   1 <1>   0.1310 
  4 C       -1.0950     2.3020    -0.2910 C.ar  1 <1>   0.1170 
  5 C        1.0160     2.2950     0.8970 C.ar  1 <1>  -0.1500 
  6 C       -2.4910     0.3200    -0.8800 C.2   1 <1>   0.5690 
  7 N       -2.2400     1.6520    -0.7770 N.am  1 <1>  -0.5470 
  8 C       -0.9590     3.6720    -0.4690 C.ar  1 <1>  -0.1500 
  9 C        1.1270     3.6610     0.7070 C.ar  1 <1>  -0.1500 
 10 O       -3.5800    -0.0490    -1.2400 O.2   1 <1>  -0.5700 
 11 C        0.1410     4.3660     0.0220 C.ar  1 <1>   0.1170 
 12 N        0.2230     5.7500    -0.2070 N.am  1 <1>  -0.5470 
 13 C        0.8690     6.7300     0.4980 C.2   1 <1>   0.5690 
 14 O        1.4770     6.5190     1.5190 O.2   1 <1>  -0.5700 
 15 C        0.7940     8.1590    -0.0430 C.3   1 <1>  -0.0190 
 16 C        2.1970     8.7160    -0.3560 C.3   1 <1>  -0.1600 
 17 C        0.0490     9.0900     0.9330 C.3   1 <1>  -0.1600 
 18 C        2.1270    10.1530    -0.8920 C.3   1 <1>  -0.1600 
 19 C       -0.0220    10.5270     0.3980 C.3   1 <1>  -0.1600 
 20 C        1.3780    11.0710     0.0830 C.3   1 <1>  -0.1600 
 21 H       -1.8650    -1.6210    -0.2120 H     1 <1>   0.0800 
 22 H       -0.8740    -0.9400    -1.4940 H     1 <1>   0.0800 
 23 H        1.7760     1.7520     1.4290 H     1 <1>   0.1500 
 24 H       -3.0380     2.2290    -1.0400 H     1 <1>   0.3700 
 25 H       -1.7270     4.2090    -0.9930 H     1 <1>   0.1500 
 26 H        1.9890     4.1750     1.0940 H     1 <1>   0.1500 
 27 H       -0.3110     6.0830    -1.0060 H     1 <1>   0.3700 
 28 H        0.2400     8.1410    -0.9650 H     1 <1>   0.0800 
 29 H        2.6840     8.0850    -1.0800 H     1 <1>   0.0800 
 30 H        2.7920     8.7020     0.5420 H     1 <1>   0.0800 
 31 H        0.5600     9.0900     1.8810 H     1 <1>   0.0800 
 32 H       -0.9470     8.7180     1.1000 H     1 <1>   0.0800 
 33 H        1.6250    10.1580    -1.8440 H     1 <1>   0.0800 
 34 H        3.1240    10.5290    -1.0430 H     1 <1>   0.0800 
 35 H       -0.4960    11.1600     1.1300 H     1 <1>   0.0800 
 36 H       -0.6230    10.5510    -0.4950 H     1 <1>   0.0800 
 37 H        1.2960    12.0570    -0.3400 H     1 <1>   0.0800 
 38 H        1.9410    11.1510     0.9980 H     1 <1>   0.0800 
@<TRIPOS>BOND
  1   1   2  1   
  2   1   3  1   
  3   2   4  ar  
  4   2   5  ar  
  5   3   6  1   
  6   3  21  1   
  7   3  22  1   
  8   4   7  1   
  9   4   8  ar  
 10   5   9  ar  
 11   5  23  1   
 12   6   7  am  
 13   6  10  2   
 14   7  24  1   
 15   8  11  ar  
 16   8  25  1   
 17   9  11  ar  
 18   9  26  1   
 19  11  12  1   
 20  12  13  am  
 21  12  27  1   
 22  13  14  2   
 23  13  15  1   
 24  15  16  1   
 25  15  17  1   
 26  15  28  1   
 27  16  18  1   
 28  16  29  1   
 29  16  30  1   
 30  17  19  1   
 31  17  31  1   
 32  17  32  1   
 33  18  20  1   
 34  18  33  1   
 35  18  34  1   
 36  19  20  1   
 37  19  35  1   
 38  19  36  1   
 39  20  37  1   
 40  20  38  1   
@<TRIPOS>SUBSTRUCTURE
  1 ****  11 GROUP 4 **** **** 0

# MOE 2024.06 (io_trps.svl 2023.06)
