@<TRIPOS>MOLECULE
N-(3-Methoxy-phenyl)-2-(5-propyl-[1,3,4]oxadiazol-2-ylsulfanyl)-acetamide
38 39 1 0 0 
SMALL
USER_CHARGES


@<TRIPOS>ATOM
  1 S       -0.3910     0.2220    -1.0280 S.3   1 <1>  -0.2860 
  2 C        1.3520    -0.1710    -0.9650 C.2   1 <1>   0.5340 
  3 C       -0.4830     1.4750    -2.3970 C.3   1 <1>   0.1310 
  4 O        1.8460    -0.6450     0.1250 O.3   1 <1>  -0.2800 
  5 N        2.2020    -0.0100    -1.9040 N.2   1 <1>  -0.3380 
  6 C       -1.0420     2.7980    -1.8920 C.2   1 <1>   0.5690 
  7 C        3.1050    -0.7520    -0.1660 C.2   1 <1>   0.2980 
  8 N        3.3630    -0.4020    -1.3750 N.2   1 <1>  -0.3380 
  9 O       -2.0150     3.2540    -2.4360 O.2   1 <1>  -0.5700 
 10 N       -0.4780     3.4880    -0.8610 N.am  1 <1>  -0.5470 
 11 C        4.0680    -1.2390     0.9030 C.3   1 <1>   0.0200 
 12 C        0.6000     3.1660    -0.0310 C.ar  1 <1>   0.1170 
 13 C        5.5390    -0.9550     0.5590 C.3   1 <1>  -0.1600 
 14 C        1.8980     3.0900    -0.5200 C.ar  1 <1>  -0.1500 
 15 C        0.3690     2.9240     1.3170 C.ar  1 <1>  -0.1500 
 16 C        6.4820    -1.4250     1.6720 C.3   1 <1>  -0.2400 
 17 C        2.9520     2.7690     0.3300 C.ar  1 <1>   0.0830 
 18 C        1.4130     2.6040     2.1660 C.ar  1 <1>  -0.1500 
 19 O        4.2450     2.6700    -0.0680 O.3   1 <1>  -0.3630 
 20 C        2.7020     2.5280     1.6710 C.ar  1 <1>  -0.1500 
 21 C        4.6080     2.8300    -1.4220 C.3   1 <1>   0.0400 
 22 H       -1.1260     1.0620    -3.1520 H     1 <1>   0.0800 
 23 H        0.4990     1.6200    -2.8010 H     1 <1>   0.0800 
 24 H       -1.0240     4.3080    -0.5940 H     1 <1>   0.3700 
 25 H        3.9210    -2.2950     1.0390 H     1 <1>   0.0800 
 26 H        3.8210    -0.7440     1.8240 H     1 <1>   0.0800 
 27 H        5.6680     0.1030     0.4060 H     1 <1>   0.0800 
 28 H        5.7960    -1.4550    -0.3600 H     1 <1>   0.0800 
 29 H        2.0670     3.2860    -1.5600 H     1 <1>   0.1500 
 30 H       -0.6340     2.9790     1.7020 H     1 <1>   0.1500 
 31 H        6.2610    -0.9160     2.5940 H     1 <1>   0.0800 
 32 H        7.5010    -1.2130     1.4020 H     1 <1>   0.0800 
 33 H        6.3850    -2.4860     1.8280 H     1 <1>   0.0800 
 34 H        1.2240     2.4150     3.2090 H     1 <1>   0.1500 
 35 H        3.5220     2.2820     2.3200 H     1 <1>   0.1500 
 36 H        5.6660     2.6580    -1.5070 H     1 <1>   0.0800 
 37 H        4.3740     3.8330    -1.7300 H     1 <1>   0.0800 
 38 H        4.0750     2.1100    -2.0180 H     1 <1>   0.0800 
@<TRIPOS>BOND
  1   1   2  1   
  2   1   3  1   
  3   2   4  1   
  4   2   5  2   
  5   3   6  1   
  6   3  22  1   
  7   3  23  1   
  8   4   7  1   
  9   5   8  1   
 10   6   9  2   
 11   6  10  am  
 12   7   8  2   
 13   7  11  1   
 14  10  12  1   
 15  10  24  1   
 16  11  13  1   
 17  11  25  1   
 18  11  26  1   
 19  12  14  ar  
 20  12  15  ar  
 21  13  16  1   
 22  13  27  1   
 23  13  28  1   
 24  14  17  ar  
 25  14  29  1   
 26  15  18  ar  
 27  15  30  1   
 28  16  31  1   
 29  16  32  1   
 30  16  33  1   
 31  17  19  1   
 32  17  20  ar  
 33  18  20  ar  
 34  18  34  1   
 35  19  21  1   
 36  20  35  1   
 37  21  36  1   
 38  21  37  1   
 39  21  38  1   
@<TRIPOS>SUBSTRUCTURE
  1 ****  14 GROUP 4 **** **** 0

# MOE 2024.06 (io_trps.svl 2023.06)
