@<TRIPOS>MOLECULE
4-(2,3-Dimethoxy-phenyl)-2,7-dimethyl-5-oxo-1,4,5,6,7,8-hexahydro-quinoline-3-ca
62 65 1 0 0 
SMALL
USER_CHARGES


@<TRIPOS>ATOM
  1 O        0.4970     0.0020    -1.4060 O.2   1 <1>  -0.5700 
  2 C        0.4420    -1.0470    -0.8110 C.2   1 <1>   0.4950 
  3 C        1.5730    -1.8070    -0.3930 C.2   1 <1>  -0.1240 
  4 C       -0.9430    -1.6060    -0.5320 C.3   1 <1>  -0.0990 
  5 C        1.4740    -3.0140     0.2220 C.2   1 <1>  -0.0380 
  6 C        2.9550    -1.2000    -0.6660 C.3   1 <1>   0.3400 
  7 C       -0.9600    -2.5390     0.6920 C.3   1 <1>  -0.0800 
  8 N        2.5810    -3.7600     0.5470 N.pl3 1 <1>  -0.6000 
  9 C        0.1250    -3.6240     0.5700 C.3   1 <1>  -0.0220 
 10 C        4.0970    -2.1870    -0.4160 C.2   1 <1>  -0.1240 
 11 C        3.1780     0.0040     0.2590 C.ar  1 <1>  -0.1440 
 12 C       -2.3470    -3.1640     0.8860 C.3   1 <1>  -0.2400 
 13 C        3.8560    -3.3820     0.1830 C.2   1 <1>  -0.0380 
 14 C        5.3640    -1.6940    -0.8410 C.2   1 <1>   0.6160 
 15 C        3.5870     1.2400    -0.2350 C.ar  1 <1>   0.0830 
 16 C        2.9900    -0.1470     1.6290 C.ar  1 <1>  -0.1500 
 17 C        4.9220    -4.4190     0.4930 C.3   1 <1>  -0.1020 
 18 O        5.6120    -1.5530    -2.0230 O.2   1 <1>  -0.5700 
 19 N        6.2900    -1.3680     0.1120 N.am  1 <1>  -0.5470 
 20 O        3.8500     1.3530    -1.5620 O.3   1 <1>  -0.3630 
 21 C        3.7380     2.3260     0.6370 C.ar  1 <1>   0.0830 
 22 C        3.1860     0.9150     2.4950 C.ar  1 <1>  -0.1500 
 23 C        7.5770    -0.8850     0.0600 C.ar  1 <1>   0.4270 
 24 C        5.1760     1.6780    -1.9230 C.3   1 <1>   0.0400 
 25 O        4.0460     3.5750     0.2100 O.3   1 <1>  -0.3630 
 26 C        3.5570     2.1500     1.9970 C.ar  1 <1>  -0.1500 
 27 N        8.0150    -0.4860     1.2430 N.ar  1 <1>  -0.6200 
 28 C        8.3490    -0.8250    -1.0990 C.ar  1 <1>  -0.1500 
 29 C        3.0640     4.2140    -0.5760 C.3   1 <1>   0.0400 
 30 C        9.2440     0.0020     1.2740 C.ar  1 <1>   0.1600 
 31 C        9.6270    -0.3170    -1.0500 C.ar  1 <1>  -0.1500 
 32 C       10.0860     0.1120     0.1780 C.ar  1 <1>  -0.1430 
 33 C       11.4860     0.6880     0.3040 C.3   1 <1>  -0.0970 
 34 H       -1.2690    -2.1370    -1.4080 H     1 <1>   0.0800 
 35 H       -1.6190    -0.7860    -0.3690 H     1 <1>   0.0800 
 36 H        2.9820    -0.9090    -1.7020 H     1 <1>   0.0800 
 37 H       -0.7330    -1.9440     1.5620 H     1 <1>   0.0800 
 38 H        2.4530    -4.6720     0.9990 H     1 <1>   0.4000 
 39 H        0.1960    -4.1480     1.5070 H     1 <1>   0.0800 
 40 H       -0.1410    -4.3340    -0.1930 H     1 <1>   0.0800 
 41 H       -2.6170    -3.7670     0.0360 H     1 <1>   0.0800 
 42 H       -3.0890    -2.3940     1.0080 H     1 <1>   0.0800 
 43 H       -2.3600    -3.7840     1.7650 H     1 <1>   0.0800 
 44 H        2.6920    -1.1010     2.0300 H     1 <1>   0.1500 
 45 H        4.6660    -5.3550     0.0290 H     1 <1>   0.0800 
 46 H        4.9940    -4.5640     1.5550 H     1 <1>   0.0800 
 47 H        5.8870    -4.1230     0.1240 H     1 <1>   0.0800 
 48 H        5.9290    -1.3400     1.0610 H     1 <1>   0.3700 
 49 H        3.0450     0.7820     3.5530 H     1 <1>   0.1500 
 50 H        5.3210     1.3970    -2.9500 H     1 <1>   0.0800 
 51 H        5.8580     1.1330    -1.2960 H     1 <1>   0.0800 
 52 H        5.3250     2.7350    -1.8050 H     1 <1>   0.0800 
 53 H        3.7010     2.9850     2.6590 H     1 <1>   0.1500 
 54 H        7.9570    -1.1740    -2.0340 H     1 <1>   0.1500 
 55 H        3.3890     5.2200    -0.7690 H     1 <1>   0.0800 
 56 H        2.1360     4.2210    -0.0320 H     1 <1>   0.0800 
 57 H        2.9450     3.6820    -1.5030 H     1 <1>   0.0800 
 58 H        9.6010     0.3330     2.2340 H     1 <1>   0.1500 
 59 H       10.2380    -0.2590    -1.9340 H     1 <1>   0.1500 
 60 H       12.2140    -0.0580     0.0390 H     1 <1>   0.0800 
 61 H       11.6790     1.0140     1.3110 H     1 <1>   0.0800 
 62 H       11.5960     1.5300    -0.3550 H     1 <1>   0.0800 
@<TRIPOS>BOND
  1   1   2  2   
  2   2   3  1   
  3   2   4  1   
  4   3   5  2   
  5   3   6  1   
  6   4   7  1   
  7   4  34  1   
  8   4  35  1   
  9   5   8  1   
 10   5   9  1   
 11   6  10  1   
 12   6  11  1   
 13   6  36  1   
 14   7   9  1   
 15   7  12  1   
 16   7  37  1   
 17   8  13  1   
 18   8  38  1   
 19   9  39  1   
 20   9  40  1   
 21  10  13  2   
 22  10  14  1   
 23  11  15  ar  
 24  11  16  ar  
 25  12  41  1   
 26  12  42  1   
 27  12  43  1   
 28  13  17  1   
 29  14  18  2   
 30  14  19  am  
 31  15  20  1   
 32  15  21  ar  
 33  16  22  ar  
 34  16  44  1   
 35  17  45  1   
 36  17  46  1   
 37  17  47  1   
 38  19  23  1   
 39  19  48  1   
 40  20  24  1   
 41  21  25  1   
 42  21  26  ar  
 43  22  26  ar  
 44  22  49  1   
 45  23  27  ar  
 46  23  28  ar  
 47  24  50  1   
 48  24  51  1   
 49  24  52  1   
 50  25  29  1   
 51  26  53  1   
 52  27  30  ar  
 53  28  31  ar  
 54  28  54  1   
 55  29  55  1   
 56  29  56  1   
 57  29  57  1   
 58  30  32  ar  
 59  30  58  1   
 60  31  32  ar  
 61  31  59  1   
 62  32  33  1   
 63  33  60  1   
 64  33  61  1   
 65  33  62  1   
@<TRIPOS>SUBSTRUCTURE
  1 ****  11 GROUP 4 **** **** 0

# MOE 2024.06 (io_trps.svl 2023.06)
