@<TRIPOS>MOLECULE
2-(3,4-Dimethyl-phenoxy)-N-isopropyl-N-[3-(4-methoxy-phenyl)-[1,2,4]oxadiazol-5-
57 59 1 0 0 
SMALL
USER_CHARGES


@<TRIPOS>ATOM
  1 O        1.0330     0.7880     2.4470 O.2   1 <1>  -0.5700 
  2 C        0.6600     1.4590     1.5120 C.2   1 <1>   0.5690 
  3 N        1.3930     1.5190     0.3480 N.am  1 <1>  -0.6600 
  4 C       -0.6350     2.2460     1.7070 C.3   1 <1>   0.1810 
  5 C        0.9680     2.2940    -0.8570 C.3   1 <1>   0.2200 
  6 C        2.6530     0.7040     0.2550 C.3   1 <1>   0.3200 
  7 O       -1.6190     1.8620     0.7580 O.3   1 <1>  -0.3630 
  8 C        0.4290     1.3390    -1.9210 C.3   1 <1>  -0.2400 
  9 C        2.1040     3.1580    -1.4040 C.3   1 <1>  -0.2400 
 10 C        3.8920     1.4920     0.6640 C.2   1 <1>   0.2980 
 11 C       -2.7410     2.6000     0.5830 C.ar  1 <1>   0.0830 
 12 O        3.9210     2.0590     1.8410 O.3   1 <1>  -0.0190 
 13 N        4.9320     1.6620    -0.0470 N.2   1 <1>  -0.5650 
 14 C       -3.4900     2.3390    -0.5510 C.ar  1 <1>  -0.1500 
 15 C       -3.1620     3.5870     1.4670 C.ar  1 <1>  -0.1500 
 16 N        5.0760     2.6490     1.8800 N.2   1 <1>  -0.4100 
 17 C        5.6770     2.4160     0.7670 C.2   1 <1>   0.4620 
 18 C       -4.6450     3.0550    -0.8260 C.ar  1 <1>  -0.1430 
 19 C       -4.3130     4.3040     1.1970 C.ar  1 <1>  -0.1500 
 20 C        6.9980     2.8990     0.4010 C.ar  1 <1>   0.0540 
 21 C       -5.0590     4.0480     0.0560 C.ar  1 <1>  -0.1430 
 22 C       -5.4310     2.7310    -2.0880 C.3   1 <1>  -0.0970 
 23 C        7.7510     3.6850     1.2770 C.ar  1 <1>  -0.1500 
 24 C        7.5730     2.6030    -0.8380 C.ar  1 <1>  -0.1500 
 25 C       -6.3200     4.8620    -0.2010 C.3   1 <1>  -0.0970 
 26 C        9.0080     4.1540     0.9410 C.ar  1 <1>  -0.1500 
 27 C        8.8280     3.0670    -1.1820 C.ar  1 <1>  -0.1500 
 28 C        9.5580     3.8450    -0.2990 C.ar  1 <1>   0.0830 
 29 O       10.7790     4.2610    -0.7110 O.3   1 <1>  -0.3620 
 30 C       11.6020     5.0550     0.1140 C.3   1 <1>   0.0400 
 31 H       -0.4330     3.2940     1.5930 H     1 <1>   0.0800 
 32 H       -1.0280     2.0560     2.6890 H     1 <1>   0.0800 
 33 H        0.1720     2.9660    -0.5900 H     1 <1>   0.0800 
 34 H        2.7850     0.3490    -0.7490 H     1 <1>   0.0800 
 35 H        2.5800    -0.1620     0.8880 H     1 <1>   0.0800 
 36 H        1.2020     0.6990    -2.3050 H     1 <1>   0.0800 
 37 H        0.0250     1.9050    -2.7410 H     1 <1>   0.0800 
 38 H       -0.3610     0.7380    -1.5090 H     1 <1>   0.0800 
 39 H        2.8860     2.5580    -1.8310 H     1 <1>   0.0800 
 40 H        2.5100     3.7770    -0.6240 H     1 <1>   0.0800 
 41 H        1.7240     3.8020    -2.1770 H     1 <1>   0.0800 
 42 H       -3.1540     1.5670    -1.2180 H     1 <1>   0.1500 
 43 H       -2.6160     3.8080     2.3640 H     1 <1>   0.1500 
 44 H       -4.6290     5.0660     1.8870 H     1 <1>   0.1500 
 45 H       -4.9610     1.9400    -2.6430 H     1 <1>   0.0800 
 46 H       -5.4870     3.5990    -2.7200 H     1 <1>   0.0800 
 47 H       -6.4260     2.4170    -1.8310 H     1 <1>   0.0800 
 48 H        7.3420     3.9340     2.2410 H     1 <1>   0.1500 
 49 H        7.0280     2.0010    -1.5430 H     1 <1>   0.1500 
 50 H       -7.1750     4.2120    -0.2450 H     1 <1>   0.0800 
 51 H       -6.2330     5.3920    -1.1320 H     1 <1>   0.0800 
 52 H       -6.4820     5.5810     0.5810 H     1 <1>   0.0800 
 53 H        9.5420     4.7540     1.6520 H     1 <1>   0.1500 
 54 H        9.2540     2.8290    -2.1400 H     1 <1>   0.1500 
 55 H       12.5130     5.2570    -0.4190 H     1 <1>   0.0800 
 56 H       11.8200     4.5110     1.0170 H     1 <1>   0.0800 
 57 H       11.0930     5.9770     0.3310 H     1 <1>   0.0800 
@<TRIPOS>BOND
  1   1   2  2   
  2   2   3  am  
  3   2   4  1   
  4   3   5  1   
  5   3   6  1   
  6   4   7  1   
  7   4  31  1   
  8   4  32  1   
  9   5   8  1   
 10   5   9  1   
 11   5  33  1   
 12   6  10  1   
 13   6  34  1   
 14   6  35  1   
 15   7  11  1   
 16   8  36  1   
 17   8  37  1   
 18   8  38  1   
 19   9  39  1   
 20   9  40  1   
 21   9  41  1   
 22  10  12  1   
 23  10  13  2   
 24  11  14  ar  
 25  11  15  ar  
 26  12  16  1   
 27  13  17  1   
 28  14  18  ar  
 29  14  42  1   
 30  15  19  ar  
 31  15  43  1   
 32  16  17  2   
 33  17  20  1   
 34  18  21  ar  
 35  18  22  1   
 36  19  21  ar  
 37  19  44  1   
 38  20  23  ar  
 39  20  24  ar  
 40  21  25  1   
 41  22  45  1   
 42  22  46  1   
 43  22  47  1   
 44  23  26  ar  
 45  23  48  1   
 46  24  27  ar  
 47  24  49  1   
 48  25  50  1   
 49  25  51  1   
 50  25  52  1   
 51  26  28  ar  
 52  26  53  1   
 53  27  28  ar  
 54  27  54  1   
 55  28  29  1   
 56  29  30  1   
 57  30  55  1   
 58  30  56  1   
 59  30  57  1   
@<TRIPOS>SUBSTRUCTURE
  1 ****   3 GROUP 4 **** **** 0

# MOE 2024.06 (io_trps.svl 2023.06)
