@<TRIPOS>MOLECULE
5-Oxo-4-oxa-tricyclo[4.2.1.0*3,7*]nonane-9-carboxylic acid [4-(3-methoxy-phenylc
52 56 1 0 0 
SMALL
USER_CHARGES


@<TRIPOS>ATOM
  1 O       -0.6710    -1.7370     3.1440 O.2   1 <1>  -0.5700 
  2 C       -0.6240    -2.0100     1.9770 C.2   1 <1>   0.6590 
  3 O       -1.6760    -2.2480     1.2230 O.3   1 <1>  -0.4300 
  4 C        0.6360    -2.1130     1.1560 C.3   1 <1>  -0.0190 
  5 C       -1.3070    -2.4920    -0.1130 C.3   1 <1>   0.2000 
  6 C        1.0870    -3.5970     1.0740 C.3   1 <1>  -0.0190 
  7 C        0.0820    -1.8450    -0.2520 C.3   1 <1>  -0.0800 
  8 C       -0.9950    -3.9930    -0.2860 C.3   1 <1>  -0.1600 
  9 C        2.5900    -3.8460     1.2150 C.2   1 <1>   0.5690 
 10 C        0.5500    -4.0290    -0.3120 C.3   1 <1>  -0.0800 
 11 C        0.8380    -2.8020    -1.1600 C.3   1 <1>  -0.1600 
 12 O        2.9300    -4.9230     1.6320 O.2   1 <1>  -0.5700 
 13 N        3.4830    -2.8630     0.8660 N.am  1 <1>  -0.5470 
 14 C        4.8830    -2.8410     0.8560 C.ar  1 <1>   0.1170 
 15 C        5.6740    -3.9850     0.8880 C.ar  1 <1>  -0.1500 
 16 C        5.5280    -1.6100     0.7990 C.ar  1 <1>  -0.1500 
 17 C        7.0530    -3.8980     0.8600 C.ar  1 <1>  -0.1500 
 18 C        6.9070    -1.5250     0.7710 C.ar  1 <1>  -0.1500 
 19 C        7.7100    -2.6690     0.7910 C.ar  1 <1>   0.0860 
 20 C        9.1560    -2.5990     0.7420 C.2   1 <1>   0.5440 
 21 O        9.8270    -3.4080     1.3520 O.2   1 <1>  -0.5700 
 22 N        9.7600    -1.6130    -0.0090 N.am  1 <1>  -0.5470 
 23 C       11.1070    -1.2670    -0.2100 C.ar  1 <1>   0.1170 
 24 C       12.1670    -2.1390     0.0140 C.ar  1 <1>  -0.1500 
 25 C       11.3920     0.0140    -0.6750 C.ar  1 <1>  -0.1500 
 26 C       13.4810    -1.7400    -0.2080 C.ar  1 <1>   0.0820 
 27 C       12.6950     0.4170    -0.9040 C.ar  1 <1>  -0.1500 
 28 O       14.5580    -2.5390     0.0020 O.3   1 <1>  -0.3620 
 29 C       13.7380    -0.4600    -0.6690 C.ar  1 <1>  -0.1500 
 30 C       14.4100    -3.8220     0.5700 C.3   1 <1>   0.0400 
 31 H        1.3810    -1.4150     1.4900 H     1 <1>   0.0800 
 32 H       -2.0580    -2.1170    -0.7880 H     1 <1>   0.0800 
 33 H        0.6070    -4.1790     1.8430 H     1 <1>   0.0800 
 34 H        0.0550    -0.8120    -0.5570 H     1 <1>   0.0800 
 35 H       -1.3790    -4.3350    -1.2310 H     1 <1>   0.0800 
 36 H       -1.4140    -4.5960     0.5010 H     1 <1>   0.0800 
 37 H        0.9620    -4.9540    -0.6810 H     1 <1>   0.0800 
 38 H        1.8850    -2.5720    -1.2470 H     1 <1>   0.0800 
 39 H        0.4020    -2.8670    -2.1440 H     1 <1>   0.0800 
 40 H        3.0530    -1.9900     0.5760 H     1 <1>   0.3700 
 41 H        5.2190    -4.9570     0.9330 H     1 <1>   0.1500 
 42 H        4.9450    -0.7070     0.7860 H     1 <1>   0.1500 
 43 H        7.6420    -4.7990     0.8920 H     1 <1>   0.1500 
 44 H        7.3690    -0.5540     0.7460 H     1 <1>   0.1500 
 45 H        9.1050    -1.0220    -0.5130 H     1 <1>   0.3700 
 46 H       11.9570    -3.1310     0.3550 H     1 <1>   0.1500 
 47 H       10.5910     0.7060    -0.8570 H     1 <1>   0.1500 
 48 H       12.9010     1.4110    -1.2620 H     1 <1>   0.1500 
 49 H       14.7560    -0.1600    -0.8410 H     1 <1>   0.1500 
 50 H       15.3880    -4.2510     0.6900 H     1 <1>   0.0800 
 51 H       13.8220    -4.4320    -0.0930 H     1 <1>   0.0800 
 52 H       13.9300    -3.7270     1.5280 H     1 <1>   0.0800 
@<TRIPOS>BOND
  1   1   2  2   
  2   2   3  1   
  3   2   4  1   
  4   3   5  1   
  5   4   6  1   
  6   4   7  1   
  7   4  31  1   
  8   5   7  1   
  9   5   8  1   
 10   5  32  1   
 11   6   9  1   
 12   6  10  1   
 13   6  33  1   
 14   7  11  1   
 15   7  34  1   
 16   8  10  1   
 17   8  35  1   
 18   8  36  1   
 19   9  12  2   
 20   9  13  am  
 21  10  11  1   
 22  10  37  1   
 23  11  38  1   
 24  11  39  1   
 25  13  14  1   
 26  13  40  1   
 27  14  15  ar  
 28  14  16  ar  
 29  15  17  ar  
 30  15  41  1   
 31  16  18  ar  
 32  16  42  1   
 33  17  19  ar  
 34  17  43  1   
 35  18  19  ar  
 36  18  44  1   
 37  19  20  1   
 38  20  21  2   
 39  20  22  am  
 40  22  23  1   
 41  22  45  1   
 42  23  24  ar  
 43  23  25  ar  
 44  24  26  ar  
 45  24  46  1   
 46  25  27  ar  
 47  25  47  1   
 48  26  28  1   
 49  26  29  ar  
 50  27  29  ar  
 51  27  48  1   
 52  28  30  1   
 53  29  49  1   
 54  30  50  1   
 55  30  51  1   
 56  30  52  1   
@<TRIPOS>SUBSTRUCTURE
  1 ****  16 GROUP 4 **** **** 0

# MOE 2024.06 (io_trps.svl 2023.06)
