@<TRIPOS>MOLECULE
N-[3-(4-Methoxy-phenyl)-[1,2,4]oxadiazol-5-ylmethyl]-3,3-dimethyl-butyramide
43 44 1 0 0 
SMALL
USER_CHARGES


@<TRIPOS>ATOM
  1 O       -0.0910     1.2230    -2.4760 O.2   1 <1>  -0.5700 
  2 C        0.2220     1.6780    -1.4040 C.2   1 <1>   0.5690 
  3 N        1.4810     1.5520    -0.9260 N.am  1 <1>  -0.7300 
  4 C       -0.8060     2.4350    -0.5820 C.3   1 <1>  -0.0990 
  5 C        2.5870     0.8800    -1.6560 C.3   1 <1>   0.3200 
  6 C       -1.5730     1.5900     0.4630 C.3   1 <1>   0.0000 
  7 C        3.8810     1.6680    -1.5320 C.2   1 <1>   0.2980 
  8 C       -2.3350     0.4430    -0.2180 C.3   1 <1>  -0.2400 
  9 C       -2.5880     2.4950     1.1750 C.3   1 <1>  -0.2400 
 10 C       -0.6220     1.0030     1.5190 C.3   1 <1>  -0.2400 
 11 O        4.0180     2.7590    -2.2370 O.3   1 <1>  -0.0190 
 12 N        4.8660     1.3740    -0.7860 N.2   1 <1>  -0.5650 
 13 N        5.1940     3.1980    -1.9130 N.2   1 <1>  -0.4100 
 14 C        5.7000     2.3840    -1.0560 C.2   1 <1>   0.4620 
 15 C        7.0080     2.5110    -0.4340 C.ar  1 <1>   0.0540 
 16 C        7.8480     3.5880    -0.7290 C.ar  1 <1>  -0.1500 
 17 C        7.4810     1.5700     0.4830 C.ar  1 <1>  -0.1500 
 18 C        9.0930     3.7230    -0.1430 C.ar  1 <1>  -0.1500 
 19 C        8.7250     1.6980     1.0730 C.ar  1 <1>  -0.1500 
 20 C        9.5420     2.7720     0.7680 C.ar  1 <1>   0.0820 
 21 O       10.7440     2.8260     1.3890 O.3   1 <1>  -0.3620 
 22 C       11.6500     3.8800     1.1480 C.3   1 <1>   0.0400 
 23 H        1.7210     1.9260    -0.0070 H     1 <1>   0.3700 
 24 H       -1.5120     2.8650    -1.2690 H     1 <1>   0.0800 
 25 H       -0.3110     3.2510    -0.0900 H     1 <1>   0.0800 
 26 H        2.3360     0.7720    -2.6970 H     1 <1>   0.0800 
 27 H        2.7320    -0.1010    -1.2400 H     1 <1>   0.0800 
 28 H       -1.6550    -0.2430    -0.6910 H     1 <1>   0.0800 
 29 H       -2.9170    -0.1060     0.5010 H     1 <1>   0.0800 
 30 H       -3.0000     0.8270    -0.9710 H     1 <1>   0.0800 
 31 H       -2.0900     3.3050     1.6780 H     1 <1>   0.0800 
 32 H       -3.1470     1.9370     1.9070 H     1 <1>   0.0800 
 33 H       -3.2850     2.9120     0.4690 H     1 <1>   0.0800 
 34 H       -0.0520     1.7820     1.9930 H     1 <1>   0.0800 
 35 H        0.0570     0.2970     1.0760 H     1 <1>   0.0800 
 36 H       -1.1820     0.4860     2.2780 H     1 <1>   0.0800 
 37 H        7.5180     4.3340    -1.4310 H     1 <1>   0.1500 
 38 H        6.8680     0.7240     0.7380 H     1 <1>   0.1500 
 39 H        9.6980     4.5700    -0.4050 H     1 <1>   0.1500 
 40 H        9.0720     0.9630     1.7770 H     1 <1>   0.1500 
 41 H       12.5260     3.7100     1.7470 H     1 <1>   0.0800 
 42 H       11.1880     4.8090     1.4320 H     1 <1>   0.0800 
 43 H       11.9140     3.8810     0.1060 H     1 <1>   0.0800 
@<TRIPOS>BOND
  1   1   2  2   
  2   2   3  am  
  3   2   4  1   
  4   3   5  1   
  5   3  23  1   
  6   4   6  1   
  7   4  24  1   
  8   4  25  1   
  9   5   7  1   
 10   5  26  1   
 11   5  27  1   
 12   6   8  1   
 13   6   9  1   
 14   6  10  1   
 15   7  11  1   
 16   7  12  2   
 17   8  28  1   
 18   8  29  1   
 19   8  30  1   
 20   9  31  1   
 21   9  32  1   
 22   9  33  1   
 23  10  34  1   
 24  10  35  1   
 25  10  36  1   
 26  11  13  1   
 27  12  14  1   
 28  13  14  2   
 29  14  15  1   
 30  15  16  ar  
 31  15  17  ar  
 32  16  18  ar  
 33  16  37  1   
 34  17  19  ar  
 35  17  38  1   
 36  18  20  ar  
 37  18  39  1   
 38  19  20  ar  
 39  19  40  1   
 40  20  21  1   
 41  21  22  1   
 42  22  41  1   
 43  22  42  1   
 44  22  43  1   
@<TRIPOS>SUBSTRUCTURE
  1 ****  12 GROUP 4 **** **** 0

# MOE 2024.06 (io_trps.svl 2023.06)
