@<TRIPOS>MOLECULE
4-(2,6-Dimethyl-morpholine-4-carbonyl)-1-(4-ethoxy-phenyl)-pyrrolidin-2-one
51 53 1 0 0 
SMALL
USER_CHARGES


@<TRIPOS>ATOM
  1 O        1.9760    -0.9460    -2.3860 O.2   1 <1>  -0.5700 
  2 C        2.6840    -1.1090    -1.4230 C.2   1 <1>   0.5690 
  3 N        2.5730    -2.0880    -0.4780 N.am  1 <1>  -0.4770 
  4 C        3.8500    -0.2040    -1.1420 C.3   1 <1>  -0.0990 
  5 C        1.5510    -3.0480    -0.3410 C.ar  1 <1>   0.1170 
  6 C        3.6150    -1.9210     0.5580 C.3   1 <1>   0.1400 
  7 C        4.6500    -0.9900    -0.0930 C.3   1 <1>  -0.0190 
  8 C        1.8400    -4.3520     0.0520 C.ar  1 <1>  -0.1500 
  9 C        0.2230    -2.7150    -0.5880 C.ar  1 <1>  -0.1500 
 10 C        5.3960    -0.0950     0.8920 C.2   1 <1>   0.5690 
 11 C        0.8360    -5.2920     0.2070 C.ar  1 <1>  -0.1500 
 12 C       -0.7850    -3.6500    -0.4360 C.ar  1 <1>  -0.1500 
 13 O        4.8540     0.1710     1.9390 O.2   1 <1>  -0.5700 
 14 N        6.6420     0.3910     0.5890 N.am  1 <1>  -0.6600 
 15 C       -0.4890    -4.9420    -0.0360 C.ar  1 <1>   0.0830 
 16 C        7.3490     1.3320     1.5150 C.3   1 <1>   0.1400 
 17 C        7.3620     0.1440    -0.7020 C.3   1 <1>   0.1400 
 18 O       -1.5370    -5.7980     0.0930 O.3   1 <1>  -0.3630 
 19 C        7.8810     2.5880     0.7780 C.3   1 <1>   0.2000 
 20 C        8.6210     1.0230    -0.8580 C.3   1 <1>   0.2000 
 21 C       -1.3340    -7.1440     0.4530 C.3   1 <1>   0.1200 
 22 O        8.3060     2.3420    -0.5380 O.3   1 <1>  -0.5600 
 23 C        9.0510     3.2360     1.5180 C.3   1 <1>  -0.2400 
 24 C        9.1520     1.0240    -2.2890 C.3   1 <1>  -0.2400 
 25 C       -2.6950    -7.8330     0.4890 C.3   1 <1>  -0.2400 
 26 H        3.4790     0.7210    -0.7380 H     1 <1>   0.0800 
 27 H        4.4160    -0.0180    -2.0350 H     1 <1>   0.0800 
 28 H        4.0600    -2.8600     0.8310 H     1 <1>   0.0800 
 29 H        3.1600    -1.4730     1.4250 H     1 <1>   0.0800 
 30 H        5.3540    -1.6240    -0.5980 H     1 <1>   0.0800 
 31 H        2.8570    -4.6410     0.2320 H     1 <1>   0.1500 
 32 H       -0.0230    -1.7170    -0.9030 H     1 <1>   0.1500 
 33 H        1.1040    -6.2850     0.5130 H     1 <1>   0.1500 
 34 H       -1.8080    -3.3830    -0.6290 H     1 <1>   0.1500 
 35 H        8.1720     0.8090     1.9690 H     1 <1>   0.0800 
 36 H        6.7000     1.6500     2.3120 H     1 <1>   0.0800 
 37 H        6.6990     0.3570    -1.5210 H     1 <1>   0.0800 
 38 H        7.6500    -0.8900    -0.7600 H     1 <1>   0.0800 
 39 H        7.0790     3.3030     0.7070 H     1 <1>   0.0800 
 40 H        9.3970     0.6880    -0.1900 H     1 <1>   0.0800 
 41 H       -0.8680    -7.1720     1.4220 H     1 <1>   0.0800 
 42 H       -0.6960    -7.6020    -0.2840 H     1 <1>   0.0800 
 43 H        9.8830     2.5580     1.5800 H     1 <1>   0.0800 
 44 H        8.7520     3.5080     2.5140 H     1 <1>   0.0800 
 45 H        9.3590     4.1270     1.0010 H     1 <1>   0.0800 
 46 H        8.4050     1.4000    -2.9650 H     1 <1>   0.0800 
 47 H        9.4210     0.0270    -2.5860 H     1 <1>   0.0800 
 48 H       10.0270     1.6460    -2.3500 H     1 <1>   0.0800 
 49 H       -3.3300    -7.3570     1.2160 H     1 <1>   0.0800 
 50 H       -2.5740    -8.8650     0.7610 H     1 <1>   0.0800 
 51 H       -3.1590    -7.7840    -0.4800 H     1 <1>   0.0800 
@<TRIPOS>BOND
  1   1   2  2   
  2   2   3  am  
  3   2   4  1   
  4   3   5  1   
  5   3   6  1   
  6   4   7  1   
  7   4  26  1   
  8   4  27  1   
  9   5   8  ar  
 10   5   9  ar  
 11   6   7  1   
 12   6  28  1   
 13   6  29  1   
 14   7  10  1   
 15   7  30  1   
 16   8  11  ar  
 17   8  31  1   
 18   9  12  ar  
 19   9  32  1   
 20  10  13  2   
 21  10  14  am  
 22  11  15  ar  
 23  11  33  1   
 24  12  15  ar  
 25  12  34  1   
 26  14  16  1   
 27  14  17  1   
 28  15  18  1   
 29  16  19  1   
 30  16  35  1   
 31  16  36  1   
 32  17  20  1   
 33  17  37  1   
 34  17  38  1   
 35  18  21  1   
 36  19  22  1   
 37  19  23  1   
 38  19  39  1   
 39  20  22  1   
 40  20  24  1   
 41  20  40  1   
 42  21  25  1   
 43  21  41  1   
 44  21  42  1   
 45  23  43  1   
 46  23  44  1   
 47  23  45  1   
 48  24  46  1   
 49  24  47  1   
 50  24  48  1   
 51  25  49  1   
 52  25  50  1   
 53  25  51  1   
@<TRIPOS>SUBSTRUCTURE
  1 ****   6 GROUP 4 **** **** 0

# MOE 2024.06 (io_trps.svl 2023.06)
