@<TRIPOS>MOLECULE
NONAME
66 69 1 0 0 
SMALL
USER_CHARGES


@<TRIPOS>ATOM
  1 O       -4.2150    -0.1570     2.0650 O.2   1 <1>  -0.5700 
  2 C       -3.4760     0.2220     1.1880 C.2   1 <1>   0.5690 
  3 N       -2.7550    -0.5580     0.3320 N.am  1 <1>  -0.4770 
  4 C       -3.3040     1.6860     0.8860 C.3   1 <1>  -0.0990 
  5 C       -2.6850    -1.9770     0.2380 C.ar  1 <1>   0.1170 
  6 C       -2.0940     0.2740    -0.6970 C.3   1 <1>   0.1400 
  7 C       -2.2030     1.7120    -0.1800 C.3   1 <1>  -0.1600 
  8 C       -3.8210    -2.8030     0.2540 C.ar  1 <1>   0.1170 
  9 C       -1.4400    -2.5770     0.0820 C.ar  1 <1>  -0.1500 
 10 N       -5.0970    -2.2620     0.4790 N.am  1 <1>  -0.5470 
 11 C       -3.6720    -4.1680     0.0740 C.ar  1 <1>  -0.1500 
 12 C       -1.2960    -3.9430    -0.0990 C.ar  1 <1>  -0.1430 
 13 C       -6.3130    -2.5730    -0.0500 C.2   1 <1>   0.5690 
 14 C       -2.4310    -4.7550    -0.1050 C.ar  1 <1>   0.1170 
 15 C        0.1060    -4.5070    -0.2910 C.3   1 <1>  -0.0960 
 16 O       -6.4640    -3.4430    -0.8760 O.2   1 <1>  -0.5700 
 17 C       -7.5050    -1.7440     0.4330 C.3   1 <1>  -0.0190 
 18 N       -2.3900    -6.1420    -0.3090 N.am  1 <1>  -0.5470 
 19 C       -8.8550    -2.4720     0.2650 C.3   1 <1>  -0.1600 
 20 C       -7.5400    -0.3750    -0.2740 C.3   1 <1>  -0.1600 
 21 C       -1.7650    -7.1010     0.4360 C.2   1 <1>   0.5690 
 22 C      -10.0260    -1.6110     0.7610 C.3   1 <1>  -0.1600 
 23 C       -8.7130     0.4850     0.2160 C.3   1 <1>  -0.1600 
 24 O       -1.0910    -6.8460     1.4050 O.2   1 <1>  -0.5700 
 25 C       -1.9450    -8.5600     0.0120 C.3   1 <1>  -0.0190 
 26 C      -10.0490    -0.2510     0.0520 C.3   1 <1>  -0.1600 
 27 C       -2.6440    -9.3820     1.1110 C.3   1 <1>  -0.1600 
 28 C       -0.5970    -9.2020    -0.3700 C.3   1 <1>  -0.1600 
 29 C       -2.8180   -10.8500     0.6940 C.3   1 <1>  -0.1600 
 30 C       -0.7700   -10.6690    -0.7880 C.3   1 <1>  -0.1600 
 31 C       -1.4720   -11.4780     0.3100 C.3   1 <1>  -0.1600 
 32 H       -3.0190     2.2250     1.7710 H     1 <1>   0.0800 
 33 H       -4.2280     2.0740     0.5000 H     1 <1>   0.0800 
 34 H       -2.6230     0.1610    -1.6280 H     1 <1>   0.0800 
 35 H       -1.0650    -0.0100    -0.8310 H     1 <1>   0.0800 
 36 H       -1.2670     1.9920     0.2720 H     1 <1>   0.0800 
 37 H       -2.4230     2.4030    -0.9760 H     1 <1>   0.0800 
 38 H       -0.5610    -1.9620     0.1050 H     1 <1>   0.1500 
 39 H       -5.0770    -1.4670     1.1330 H     1 <1>   0.3700 
 40 H       -4.5460    -4.7920     0.0850 H     1 <1>   0.1500 
 41 H        0.7820    -3.7490    -0.6420 H     1 <1>   0.0800 
 42 H        0.0990    -5.3070    -1.0090 H     1 <1>   0.0800 
 43 H        0.4750    -4.8860     0.6460 H     1 <1>   0.0800 
 44 H       -7.3630    -1.5700     1.4860 H     1 <1>   0.0800 
 45 H       -3.0350    -6.4810    -1.0210 H     1 <1>   0.3700 
 46 H       -8.8330    -3.4000     0.8100 H     1 <1>   0.0800 
 47 H       -9.0070    -2.7070    -0.7750 H     1 <1>   0.0800 
 48 H       -7.6320    -0.5310    -1.3360 H     1 <1>   0.0800 
 49 H       -6.6180     0.1500    -0.0970 H     1 <1>   0.0800 
 50 H       -9.9340    -1.4600     1.8230 H     1 <1>   0.0800 
 51 H      -10.9530    -2.1270     0.5800 H     1 <1>   0.0800 
 52 H       -8.7410     1.4070    -0.3390 H     1 <1>   0.0800 
 53 H       -8.5670     0.7300     1.2540 H     1 <1>   0.0800 
 54 H       -2.5740    -8.5800    -0.8600 H     1 <1>   0.0800 
 55 H      -10.8450     0.3520     0.4550 H     1 <1>   0.0800 
 56 H      -10.2470    -0.4000    -0.9960 H     1 <1>   0.0800 
 57 H       -3.6070    -8.9520     1.3280 H     1 <1>   0.0800 
 58 H       -2.0570    -9.3380     2.0130 H     1 <1>   0.0800 
 59 H        0.0700    -9.1500     0.4740 H     1 <1>   0.0800 
 60 H       -0.1480    -8.6480    -1.1760 H     1 <1>   0.0800 
 61 H       -3.4910   -10.9070    -0.1440 H     1 <1>   0.0800 
 62 H       -3.2550   -11.4050     1.5060 H     1 <1>   0.0800 
 63 H        0.1950   -11.1010    -0.9910 H     1 <1>   0.0800 
 64 H       -1.3490   -10.7190    -1.6940 H     1 <1>   0.0800 
 65 H       -1.6290   -12.4880    -0.0300 H     1 <1>   0.0800 
 66 H       -0.8390   -11.5190     1.1800 H     1 <1>   0.0800 
@<TRIPOS>BOND
  1   1   2  2   
  2   2   3  am  
  3   2   4  1   
  4   3   5  1   
  5   3   6  1   
  6   4   7  1   
  7   4  32  1   
  8   4  33  1   
  9   5   8  ar  
 10   5   9  ar  
 11   6   7  1   
 12   6  34  1   
 13   6  35  1   
 14   7  36  1   
 15   7  37  1   
 16   8  10  1   
 17   8  11  ar  
 18   9  12  ar  
 19   9  38  1   
 20  10  13  am  
 21  10  39  1   
 22  11  14  ar  
 23  11  40  1   
 24  12  14  ar  
 25  12  15  1   
 26  13  16  2   
 27  13  17  1   
 28  14  18  1   
 29  15  41  1   
 30  15  42  1   
 31  15  43  1   
 32  17  19  1   
 33  17  20  1   
 34  17  44  1   
 35  18  21  am  
 36  18  45  1   
 37  19  22  1   
 38  19  46  1   
 39  19  47  1   
 40  20  23  1   
 41  20  48  1   
 42  20  49  1   
 43  21  24  2   
 44  21  25  1   
 45  22  26  1   
 46  22  50  1   
 47  22  51  1   
 48  23  26  1   
 49  23  52  1   
 50  23  53  1   
 51  25  27  1   
 52  25  28  1   
 53  25  54  1   
 54  26  55  1   
 55  26  56  1   
 56  27  29  1   
 57  27  57  1   
 58  27  58  1   
 59  28  30  1   
 60  28  59  1   
 61  28  60  1   
 62  29  31  1   
 63  29  61  1   
 64  29  62  1   
 65  30  31  1   
 66  30  63  1   
 67  30  64  1   
 68  31  65  1   
 69  31  66  1   
@<TRIPOS>SUBSTRUCTURE
  1 ****  11 GROUP 4 **** **** 0

# MOE 2024.06 (io_trps.svl 2023.06)
