@<TRIPOS>MOLECULE
1-(Furan-2-carbonyl)-piperidine-4-carboxylic acid (5-phenethyl-[1,3,4]thiadiazol
51 54 1 0 0 
SMALL
USER_CHARGES


@<TRIPOS>ATOM
  1 S       -0.3960     0.1060     0.8440 S.3   1 <1>  -0.0800 
  2 C       -1.9110     0.2760     0.0190 C.2   1 <1>   0.4420 
  3 C        0.1910     1.4210    -0.1160 C.2   1 <1>   0.1980 
  4 N       -1.8850     1.2220    -0.8470 N.2   1 <1>  -0.3380 
  5 N       -2.9150    -0.5950     0.3890 N.am  1 <1>  -0.4940 
  6 N       -0.6830     1.8720    -0.9180 N.2   1 <1>  -0.3380 
  7 C        1.6200     1.8820     0.0850 C.3   1 <1>   0.0200 
  8 C       -4.1810    -0.7200    -0.1100 C.2   1 <1>   0.5690 
  9 C        2.6070     0.9430    -0.6160 C.3   1 <1>  -0.0170 
 10 O       -4.5980    -0.0520    -1.0210 O.2   1 <1>  -0.5700 
 11 C       -5.0880    -1.7690     0.5390 C.3   1 <1>  -0.0190 
 12 C        4.0320     1.4320    -0.4160 C.ar  1 <1>  -0.1440 
 13 C       -4.7430    -3.1860     0.0430 C.3   1 <1>  -0.1600 
 14 C       -6.5880    -1.4930     0.3040 C.3   1 <1>  -0.1600 
 15 C        4.7930     0.9660     0.6450 C.ar  1 <1>  -0.1500 
 16 C        4.5810     2.3540    -1.2940 C.ar  1 <1>  -0.1500 
 17 C       -5.6350    -4.2440     0.6990 C.3   1 <1>   0.1400 
 18 C       -7.4800    -2.5600     0.9430 C.3   1 <1>   0.1400 
 19 C        6.0890     1.4170     0.8270 C.ar  1 <1>  -0.1500 
 20 C        5.8770     2.8070    -1.1120 C.ar  1 <1>  -0.1500 
 21 N       -7.0680    -3.9100     0.4680 N.am  1 <1>  -0.6600 
 22 C        6.6310     2.3380    -0.0510 C.ar  1 <1>  -0.1500 
 23 C       -7.8850    -4.7260    -0.2980 C.2   1 <1>   0.7150 
 24 O       -7.3640    -5.5980    -0.9730 O.2   1 <1>  -0.5700 
 25 C       -9.3270    -4.5830    -0.2900 C.2   1 <1>   0.0550 
 26 O      -10.0310    -4.6540    -1.4170 O.3   1 <1>  -0.2800 
 27 C      -10.1960    -4.3750     0.7400 C.2   1 <1>  -0.1500 
 28 C      -11.3040    -4.4950    -1.1380 C.2   1 <1>  -0.0100 
 29 C      -11.4760    -4.3160     0.1890 C.2   1 <1>  -0.1500 
 30 H       -2.6650    -1.2360     1.1350 H     1 <1>   0.3700 
 31 H        1.8390     1.9290     1.1370 H     1 <1>   0.0800 
 32 H        1.7240     2.8730    -0.3200 H     1 <1>   0.0800 
 33 H        2.3810     0.9050    -1.6670 H     1 <1>   0.0800 
 34 H        2.5080    -0.0540    -0.2240 H     1 <1>   0.0800 
 35 H       -4.9170    -1.7310     1.6000 H     1 <1>   0.0800 
 36 H       -3.7150    -3.4170     0.2560 H     1 <1>   0.0800 
 37 H       -4.8740    -3.2390    -1.0250 H     1 <1>   0.0800 
 38 H       -6.7910    -1.4660    -0.7530 H     1 <1>   0.0800 
 39 H       -6.8450    -0.5280     0.7050 H     1 <1>   0.0800 
 40 H        4.3840     0.2490     1.3350 H     1 <1>   0.1500 
 41 H        4.0040     2.7260    -2.1230 H     1 <1>   0.1500 
 42 H       -5.4510    -4.2760     1.7590 H     1 <1>   0.0800 
 43 H       -5.3970    -5.2150     0.2960 H     1 <1>   0.0800 
 44 H       -8.5030    -2.3530     0.6820 H     1 <1>   0.0800 
 45 H       -7.3920    -2.5230     2.0160 H     1 <1>   0.0800 
 46 H        6.6750     1.0520     1.6520 H     1 <1>   0.1500 
 47 H        6.2970     3.5230    -1.7970 H     1 <1>   0.1500 
 48 H        7.6380     2.6900     0.0900 H     1 <1>   0.1500 
 49 H       -9.9630    -4.2800     1.7860 H     1 <1>   0.1500 
 50 H      -12.0210    -4.5250    -1.9390 H     1 <1>   0.1500 
 51 H      -12.3930    -4.1620     0.7310 H     1 <1>   0.1500 
@<TRIPOS>BOND
  1   1   2  1   
  2   1   3  1   
  3   2   4  2   
  4   2   5  1   
  5   3   6  2   
  6   3   7  1   
  7   4   6  1   
  8   5   8  am  
  9   5  30  1   
 10   7   9  1   
 11   7  31  1   
 12   7  32  1   
 13   8  10  2   
 14   8  11  1   
 15   9  12  1   
 16   9  33  1   
 17   9  34  1   
 18  11  13  1   
 19  11  14  1   
 20  11  35  1   
 21  12  15  ar  
 22  12  16  ar  
 23  13  17  1   
 24  13  36  1   
 25  13  37  1   
 26  14  18  1   
 27  14  38  1   
 28  14  39  1   
 29  15  19  ar  
 30  15  40  1   
 31  16  20  ar  
 32  16  41  1   
 33  17  21  1   
 34  17  42  1   
 35  17  43  1   
 36  18  21  1   
 37  18  44  1   
 38  18  45  1   
 39  19  22  ar  
 40  19  46  1   
 41  20  22  ar  
 42  20  47  1   
 43  21  23  am  
 44  22  48  1   
 45  23  24  2   
 46  23  25  1   
 47  25  26  1   
 48  25  27  2   
 49  26  28  1   
 50  27  29  1   
 51  27  49  1   
 52  28  29  2   
 53  28  50  1   
 54  29  51  1   
@<TRIPOS>SUBSTRUCTURE
  1 ****   5 GROUP 4 **** **** 0

# MOE 2024.06 (io_trps.svl 2023.06)
