@<TRIPOS>MOLECULE
3-(2-Ethoxy-ethyl)-8-(2-methoxy-5-methyl-phenyl)-1-methyl-7,8-dihydro-1H,6H-imid
55 58 1 0 0 
SMALL
USER_CHARGES


@<TRIPOS>ATOM
  1 O       -0.2940     0.6220     0.5200 O.2   1 <1>  -0.5740 
  2 C        0.8040     0.7720     0.0260 C.2   1 <1>   0.6870 
  3 N        1.0890     1.9200    -0.7080 N.am  1 <1>  -0.4250 
  4 N        1.7810    -0.1970     0.2150 N.am  1 <1>  -0.4410 
  5 C        2.3650     2.1640    -1.1970 C.2   1 <1>   0.7000 
  6 C       -0.0050     2.9090    -0.9690 C.3   1 <1>   0.1330 
  7 C        3.0440     0.0460    -0.2890 C.2   1 <1>   0.4210 
  8 C        1.4810    -1.4520     0.9660 C.3   1 <1>   0.0530 
  9 O        2.6310     3.1980    -1.7860 O.2   1 <1>  -0.5740 
 10 C        3.3660     1.1690    -0.9720 C.2   1 <1>   0.2710 
 11 C       -0.1420     3.8850     0.1990 C.3   1 <1>   0.1130 
 12 N        4.1580    -0.7390    -0.1840 N.pl3 1 <1>  -0.7030 
 13 N        4.7230     1.0420    -1.2840 N.pl3 1 <1>  -0.7670 
 14 O       -1.1270     4.8080    -0.1290 O.3   1 <1>  -0.5640 
 15 C        5.1480    -0.0950    -0.7880 C.cat 1 <1>   1.0690 
 16 C        5.8050     1.8050    -1.9250 C.3   1 <1>   0.3490 
 17 C       -1.3830     5.7370     0.8690 C.3   1 <1>   0.1130 
 18 N        6.4450    -0.3250    -0.9990 N.pl3 1 <1>  -0.5790 
 19 C        7.0100     0.8500    -1.7360 C.3   1 <1>   0.1610 
 20 C       -2.4740     6.6700     0.3590 C.3   1 <1>  -0.2460 
 21 C        7.2240    -1.4210    -0.5690 C.ar  1 <1>   0.3050 
 22 C        7.1240    -1.9520     0.7280 C.ar  1 <1>   0.0750 
 23 C        8.1220    -1.9980    -1.4590 C.ar  1 <1>  -0.1570 
 24 O        6.2460    -1.3800     1.6060 O.3   1 <1>  -0.3680 
 25 C        7.9140    -3.0370     1.0920 C.ar  1 <1>  -0.1570 
 26 C        8.9080    -3.0760    -1.0930 C.ar  1 <1>  -0.1500 
 27 C        6.3950    -1.5690     3.0000 C.3   1 <1>   0.0330 
 28 C        8.7990    -3.5920     0.1850 C.ar  1 <1>  -0.1570 
 29 C        9.8850    -3.6950    -2.0780 C.3   1 <1>  -0.1030 
 30 H       -0.9380     2.3900    -1.1060 H     1 <1>   0.0730 
 31 H        0.2030     3.4620    -1.8690 H     1 <1>   0.0730 
 32 H        0.4280    -1.6730     0.9240 H     1 <1>   0.0730 
 33 H        1.7670    -1.3350     1.9960 H     1 <1>   0.0730 
 34 H        2.0130    -2.2830     0.5370 H     1 <1>   0.0730 
 35 H        0.7790     4.4170     0.3600 H     1 <1>   0.0730 
 36 H       -0.4450     3.3640     1.0920 H     1 <1>   0.0730 
 37 H        4.3160    -1.5820     0.3670 H     1 <1>   0.4450 
 38 H        5.9630     2.7460    -1.4240 H     1 <1>   0.0730 
 39 H        5.5920     1.9740    -2.9680 H     1 <1>   0.0730 
 40 H       -0.4800     6.2870     1.0740 H     1 <1>   0.0730 
 41 H       -1.7110     5.2180     1.7530 H     1 <1>   0.0730 
 42 H        7.7860     1.3220    -1.1560 H     1 <1>   0.0730 
 43 H        7.4070     0.5510    -2.6910 H     1 <1>   0.0730 
 44 H       -2.1420     7.1720    -0.5320 H     1 <1>   0.0730 
 45 H       -2.7010     7.4080     1.1060 H     1 <1>   0.0730 
 46 H       -3.3670     6.1100     0.1450 H     1 <1>   0.0730 
 47 H        8.2110    -1.6100    -2.4560 H     1 <1>   0.1430 
 48 H        7.8610    -3.4740     2.0720 H     1 <1>   0.1430 
 49 H        5.7200    -0.9030     3.5070 H     1 <1>   0.0730 
 50 H        7.4080    -1.3400     3.2810 H     1 <1>   0.0730 
 51 H        6.1510    -2.5880     3.2480 H     1 <1>   0.0730 
 52 H        9.4070    -4.4310     0.4810 H     1 <1>   0.1430 
 53 H        9.5940    -3.4850    -3.0910 H     1 <1>   0.0730 
 54 H        9.9180    -4.7620    -1.9520 H     1 <1>   0.0730 
 55 H       10.8710    -3.2980    -1.9120 H     1 <1>   0.0730 
@<TRIPOS>BOND
  1   1   2  2   
  2   2   3  am  
  3   2   4  am  
  4   3   5  am  
  5   3   6  1   
  6   4   7  1   
  7   4   8  1   
  8   5   9  2   
  9   5  10  1   
 10   6  11  1   
 11   6  30  1   
 12   6  31  1   
 13   7  10  2   
 14   7  12  1   
 15   8  32  1   
 16   8  33  1   
 17   8  34  1   
 18  10  13  1   
 19  11  14  1   
 20  11  35  1   
 21  11  36  1   
 22  12  15  ar  
 23  12  37  1   
 24  13  15  ar  
 25  13  16  1   
 26  14  17  1   
 27  15  18  ar  
 28  16  19  1   
 29  16  38  1   
 30  16  39  1   
 31  17  20  1   
 32  17  40  1   
 33  17  41  1   
 34  18  19  1   
 35  18  21  1   
 36  19  42  1   
 37  19  43  1   
 38  20  44  1   
 39  20  45  1   
 40  20  46  1   
 41  21  22  ar  
 42  21  23  ar  
 43  22  24  1   
 44  22  25  ar  
 45  23  26  ar  
 46  23  47  1   
 47  24  27  1   
 48  25  28  ar  
 49  25  48  1   
 50  26  28  ar  
 51  26  29  1   
 52  27  49  1   
 53  27  50  1   
 54  27  51  1   
 55  28  52  1   
 56  29  53  1   
 57  29  54  1   
 58  29  55  1   
@<TRIPOS>SUBSTRUCTURE
  1 ****   7 GROUP 4 **** **** 0

# MOE 2024.06 (io_trps.svl 2023.06)
