@<TRIPOS>MOLECULE
4-tert-Butyl-N-(5-methyl-7-oxo-4,7-dihydro-[1,2,4]triazolo[1,5-a]pyrimidin-2-yl)
43 45 1 0 0 
SMALL
USER_CHARGES


@<TRIPOS>ATOM
  1 O       -0.1560    -0.3920     1.0390 O.2   1 <1>  -0.5700 
  2 C       -0.3470    -1.5230     0.6150 C.2   1 <1>   0.5650 
  3 N       -1.6420    -2.0650     0.4250 N.pl3 1 <1>   0.5610 
  4 C        0.7550    -2.3650     0.2780 C.2   1 <1>  -0.1360 
  5 N       -2.8870    -1.5720     0.6190 N.2   1 <1>  -0.7070 
  6 C       -1.7900    -3.3180    -0.0740 C.2   1 <1>   0.2700 
  7 C        0.5830    -3.6200    -0.2140 C.2   1 <1>  -0.0380 
  8 C       -3.6340    -2.5570     0.2580 C.2   1 <1>   0.5790 
  9 N       -3.0190    -3.6540    -0.2040 N.2   1 <1>  -0.5650 
 10 N       -0.6920    -4.1020    -0.3960 N.pl3 1 <1>  -0.5840 
 11 C        1.7230    -4.5470    -0.5840 C.3   1 <1>  -0.1020 
 12 N       -5.0090    -2.5430     0.2600 N.am  1 <1>  -0.4930 
 13 C       -5.8670    -1.9940     1.1700 C.2   1 <1>   0.5440 
 14 O       -5.4610    -1.6500     2.2620 O.2   1 <1>  -0.5700 
 15 C       -7.2770    -1.8910     0.8410 C.ar  1 <1>   0.0860 
 16 C       -7.7180    -1.6930    -0.4670 C.ar  1 <1>  -0.1500 
 17 C       -8.2550    -1.9920     1.8260 C.ar  1 <1>  -0.1500 
 18 C       -9.0650    -1.6210    -0.7700 C.ar  1 <1>  -0.1500 
 19 C       -9.6030    -1.9200     1.5240 C.ar  1 <1>  -0.1500 
 20 C      -10.0380    -1.7360     0.2160 C.ar  1 <1>  -0.1430 
 21 C      -11.5300    -1.6510    -0.1740 C.3   1 <1>   0.1430 
 22 C      -11.8640    -2.7700    -1.1720 C.3   1 <1>  -0.2400 
 23 C      -12.4790    -1.8020     1.0270 C.3   1 <1>  -0.2400 
 24 C      -11.8140    -0.2880    -0.8220 C.3   1 <1>  -0.2400 
 25 H        1.7300    -1.9440     0.4370 H     1 <1>   0.1500 
 26 H       -0.8820    -5.0440    -0.7580 H     1 <1>   0.4000 
 27 H        1.6730    -5.4460     0.0040 H     1 <1>   0.0800 
 28 H        2.6720    -4.0740    -0.4030 H     1 <1>   0.0800 
 29 H        1.6640    -4.8070    -1.6260 H     1 <1>   0.0800 
 30 H       -5.4070    -3.1810    -0.4180 H     1 <1>   0.3700 
 31 H       -7.0020    -1.5830    -1.2610 H     1 <1>   0.1500 
 32 H       -7.9470    -2.1310     2.8490 H     1 <1>   0.1500 
 33 H       -9.3510    -1.4690    -1.7960 H     1 <1>   0.1500 
 34 H      -10.2970    -2.0090     2.3390 H     1 <1>   0.1500 
 35 H      -11.2970    -2.6660    -2.0780 H     1 <1>   0.0800 
 36 H      -12.9080    -2.7510    -1.4290 H     1 <1>   0.0800 
 37 H      -11.6360    -3.7280    -0.7390 H     1 <1>   0.0800 
 38 H      -12.3370    -2.7550     1.5040 H     1 <1>   0.0800 
 39 H      -13.5050    -1.7390     0.7080 H     1 <1>   0.0800 
 40 H      -12.3070    -1.0210     1.7450 H     1 <1>   0.0800 
 41 H      -11.2450    -0.1590    -1.7240 H     1 <1>   0.0800 
 42 H      -11.5520     0.5030    -0.1420 H     1 <1>   0.0800 
 43 H      -12.8560    -0.1950    -1.0690 H     1 <1>   0.0800 
@<TRIPOS>BOND
  1   1   2  2   
  2   2   3  1   
  3   2   4  1   
  4   3   5  1   
  5   3   6  1   
  6   4   7  2   
  7   4  25  1   
  8   5   8  2   
  9   6   9  2   
 10   6  10  1   
 11   7  10  1   
 12   7  11  1   
 13   8   9  1   
 14   8  12  1   
 15  10  26  1   
 16  11  27  1   
 17  11  28  1   
 18  11  29  1   
 19  12  13  am  
 20  12  30  1   
 21  13  14  2   
 22  13  15  1   
 23  15  16  ar  
 24  15  17  ar  
 25  16  18  ar  
 26  16  31  1   
 27  17  19  ar  
 28  17  32  1   
 29  18  20  ar  
 30  18  33  1   
 31  19  20  ar  
 32  19  34  1   
 33  20  21  1   
 34  21  22  1   
 35  21  23  1   
 36  21  24  1   
 37  22  35  1   
 38  22  36  1   
 39  22  37  1   
 40  23  38  1   
 41  23  39  1   
 42  23  40  1   
 43  24  41  1   
 44  24  42  1   
 45  24  43  1   
@<TRIPOS>SUBSTRUCTURE
  1 ****  12 GROUP 4 **** **** 0

# MOE 2024.06 (io_trps.svl 2023.06)
