@<TRIPOS>MOLECULE
4-(2,3-Dimethoxy-phenyl)-2,7-dimethyl-5-oxo-1,4,5,6,7,8-hexahydro-quinoline-3-ca
62 65 1 0 0 
SMALL
USER_CHARGES


@<TRIPOS>ATOM
  1 O        1.1030    -0.0110    -1.9950 O.2   1 <1>  -0.5700 
  2 C        0.7460    -1.0400    -1.4730 C.2   1 <1>   0.4950 
  3 C        1.5900    -1.8950    -0.7060 C.2   1 <1>  -0.1240 
  4 C       -0.6950    -1.4650    -1.7010 C.3   1 <1>  -0.0990 
  5 C        1.1810    -3.0870    -0.2080 C.2   1 <1>  -0.0380 
  6 C        3.0210    -1.4160    -0.4350 C.3   1 <1>   0.3400 
  7 C       -1.2140    -2.3950    -0.5900 C.3   1 <1>  -0.0800 
  8 N        2.0450    -3.9260     0.4470 N.pl3 1 <1>  -0.6000 
  9 C       -0.2510    -3.5750    -0.3680 C.3   1 <1>  -0.0220 
 10 C        3.9620    -2.5440     0.0270 C.2   1 <1>  -0.1240 
 11 C        2.9670    -0.3310     0.6530 C.ar  1 <1>  -0.1440 
 12 C       -2.6310    -2.8910    -0.9070 C.3   1 <1>  -0.2400 
 13 C        3.4060    -3.7010     0.4920 C.2   1 <1>  -0.0380 
 14 C        5.3710    -2.2710    -0.1070 C.2   1 <1>   0.6160 
 15 C        3.4580     0.9540     0.4380 C.ar  1 <1>   0.0830 
 16 C        2.4120    -0.6380     1.8900 C.ar  1 <1>  -0.1500 
 17 C        4.1740    -4.8720     1.0850 C.3   1 <1>  -0.1020 
 18 O        6.1490    -3.1860    -0.3030 O.2   1 <1>  -0.5700 
 19 N        5.8820    -0.9970    -0.0390 N.am  1 <1>  -0.5470 
 20 O        3.9900     1.2430    -0.7750 O.3   1 <1>  -0.3630 
 21 C        3.4160     1.9030     1.4670 C.ar  1 <1>   0.0830 
 22 C        2.3380     0.3100     2.8950 C.ar  1 <1>  -0.1500 
 23 C        7.1800    -0.5320    -0.0890 C.ar  1 <1>   0.4270 
 24 C        3.3490     2.2530    -1.5250 C.3   1 <1>   0.0400 
 25 O        3.9440     3.1440     1.3430 O.3   1 <1>  -0.3630 
 26 C        2.8380     1.5810     2.6820 C.ar  1 <1>  -0.1500 
 27 N        7.3770     0.5860     0.5980 N.ar  1 <1>  -0.6200 
 28 C        8.1900    -1.1640    -0.8150 C.ar  1 <1>  -0.1500 
 29 C        5.3500     3.2040     1.2450 C.3   1 <1>   0.0400 
 30 C        8.6070     1.0700     0.5960 C.ar  1 <1>   0.1670 
 31 C        9.4650    -0.6500    -0.8180 C.ar  1 <1>  -0.1500 
 32 C        9.6700     0.4990    -0.0850 C.ar  1 <1>  -0.1500 
 33 C        8.8260     2.3320     1.4030 C.3   1 <1>  -0.0970 
 34 H       -0.7480    -1.9590    -2.6540 H     1 <1>   0.0800 
 35 H       -1.3100    -0.5840    -1.7490 H     1 <1>   0.0800 
 36 H        3.4080    -1.0310    -1.3620 H     1 <1>   0.0800 
 37 H       -1.2530    -1.8260     0.3250 H     1 <1>   0.0800 
 38 H        1.6940    -4.8200     0.8100 H     1 <1>   0.4000 
 39 H       -0.5530    -4.1060     0.5180 H     1 <1>   0.0800 
 40 H       -0.2940    -4.2560    -1.1990 H     1 <1>   0.0800 
 41 H       -2.6400    -3.4660    -1.8170 H     1 <1>   0.0800 
 42 H       -3.3010    -2.0570    -1.0230 H     1 <1>   0.0800 
 43 H       -2.9990    -3.5090    -0.1080 H     1 <1>   0.0800 
 44 H        2.0300    -1.6270     2.0790 H     1 <1>   0.1500 
 45 H        4.3080    -5.6340     0.3390 H     1 <1>   0.0800 
 46 H        3.6390    -5.2880     1.9190 H     1 <1>   0.0800 
 47 H        5.1400    -4.5710     1.4470 H     1 <1>   0.0800 
 48 H        5.2320    -0.2590     0.2370 H     1 <1>   0.3700 
 49 H        1.8960     0.0580     3.8430 H     1 <1>   0.1500 
 50 H        3.6310     2.1380    -2.5550 H     1 <1>   0.0800 
 51 H        3.6610     3.2150    -1.1630 H     1 <1>   0.0800 
 52 H        2.2830     2.1470    -1.4240 H     1 <1>   0.0800 
 53 H        2.7930     2.3240     3.4570 H     1 <1>   0.1500 
 54 H        7.9750    -2.0530    -1.3750 H     1 <1>   0.1500 
 55 H        5.6490     4.2340     1.3020 H     1 <1>   0.0800 
 56 H        5.6610     2.7830     0.3050 H     1 <1>   0.0800 
 57 H        5.7800     2.6450     2.0580 H     1 <1>   0.0800 
 58 H       10.2620    -1.1220    -1.3640 H     1 <1>   0.1500 
 59 H       10.6480     0.9430    -0.0480 H     1 <1>   0.1500 
 60 H        8.4260     2.2000     2.3920 H     1 <1>   0.0800 
 61 H        8.3220     3.1530     0.9290 H     1 <1>   0.0800 
 62 H        9.8720     2.5650     1.4830 H     1 <1>   0.0800 
@<TRIPOS>BOND
  1   1   2  2   
  2   2   3  1   
  3   2   4  1   
  4   3   5  2   
  5   3   6  1   
  6   4   7  1   
  7   4  34  1   
  8   4  35  1   
  9   5   8  1   
 10   5   9  1   
 11   6  10  1   
 12   6  11  1   
 13   6  36  1   
 14   7   9  1   
 15   7  12  1   
 16   7  37  1   
 17   8  13  1   
 18   8  38  1   
 19   9  39  1   
 20   9  40  1   
 21  10  13  2   
 22  10  14  1   
 23  11  15  ar  
 24  11  16  ar  
 25  12  41  1   
 26  12  42  1   
 27  12  43  1   
 28  13  17  1   
 29  14  18  2   
 30  14  19  am  
 31  15  20  1   
 32  15  21  ar  
 33  16  22  ar  
 34  16  44  1   
 35  17  45  1   
 36  17  46  1   
 37  17  47  1   
 38  19  23  1   
 39  19  48  1   
 40  20  24  1   
 41  21  25  1   
 42  21  26  ar  
 43  22  26  ar  
 44  22  49  1   
 45  23  27  ar  
 46  23  28  ar  
 47  24  50  1   
 48  24  51  1   
 49  24  52  1   
 50  25  29  1   
 51  26  53  1   
 52  27  30  ar  
 53  28  31  ar  
 54  28  54  1   
 55  29  55  1   
 56  29  56  1   
 57  29  57  1   
 58  30  32  ar  
 59  30  33  1   
 60  31  32  ar  
 61  31  58  1   
 62  32  59  1   
 63  33  60  1   
 64  33  61  1   
 65  33  62  1   
@<TRIPOS>SUBSTRUCTURE
  1 ****  11 GROUP 4 **** **** 0

# MOE 2024.06 (io_trps.svl 2023.06)
