@<TRIPOS>MOLECULE
C-[1-(4-Methoxy-benzyl)-piperidin-4-yl]-methylamine
41 42 1 0 0 
SMALL
USER_CHARGES


@<TRIPOS>ATOM
  1 O       -0.4160    -0.1730     0.2410 O.3   1 <1>  -0.3630 
  2 C       -1.5670    -0.8340    -0.0310 C.ar  1 <1>   0.0830 
  3 C        0.3140    -0.4160     1.4240 C.3   1 <1>   0.0400 
  4 C       -2.1580    -1.7530     0.8310 C.ar  1 <1>  -0.1500 
  5 C       -2.1690    -0.5590    -1.2470 C.ar  1 <1>  -0.1500 
  6 C       -3.3400    -2.3790     0.4730 C.ar  1 <1>  -0.1500 
  7 C       -3.3490    -1.1840    -1.6050 C.ar  1 <1>  -0.1500 
  8 C       -3.9470    -2.0920    -0.7420 C.ar  1 <1>  -0.1430 
  9 C       -5.2540    -2.7570    -1.1240 C.3   1 <1>   0.4860 
 10 N       -6.3570    -2.1180    -0.3460 N.4   1 <1>  -0.9590 
 11 C       -7.6260    -2.8820    -0.4870 C.3   1 <1>   0.3430 
 12 C       -6.5040    -0.6780    -0.7100 C.3   1 <1>   0.3430 
 13 C       -8.7200    -2.2570     0.3930 C.3   1 <1>  -0.1600 
 14 C       -7.5760    -0.0290     0.1720 C.3   1 <1>  -0.1600 
 15 C       -8.9340    -0.7560     0.0950 C.3   1 <1>  -0.0800 
 16 C       -9.9430    -0.0780     1.0510 C.3   1 <1>   0.3430 
 17 N      -11.3140    -0.6370     0.9080 N.4   1 <1>  -0.8530 
 18 H        1.1920     0.2050     1.4070 H     1 <1>   0.0800 
 19 H        0.6010    -1.4520     1.4520 H     1 <1>   0.0800 
 20 H       -0.2970    -0.1600     2.2710 H     1 <1>   0.0800 
 21 H       -1.7070    -1.9920     1.7760 H     1 <1>   0.1500 
 22 H       -1.6980     0.1470    -1.9090 H     1 <1>   0.1500 
 23 H       -3.7680    -3.0930     1.1550 H     1 <1>   0.1500 
 24 H       -3.7840    -0.9520    -2.5630 H     1 <1>   0.1500 
 25 H       -5.1940    -3.8090    -0.8930 H     1 <1>   0.0800 
 26 H       -5.4270    -2.6500    -2.1830 H     1 <1>   0.0800 
 27 H       -6.0450    -2.1500     0.6330 H     1 <1>   0.4500 
 28 H       -7.4710    -3.9090    -0.1950 H     1 <1>   0.0800 
 29 H       -7.9420    -2.8710    -1.5180 H     1 <1>   0.0800 
 30 H       -6.7820    -0.5890    -1.7480 H     1 <1>   0.0800 
 31 H       -5.5660    -0.1620    -0.5680 H     1 <1>   0.0800 
 32 H       -8.4490    -2.3980     1.4260 H     1 <1>   0.0800 
 33 H       -9.6300    -2.8040     0.2220 H     1 <1>   0.0800 
 34 H       -7.6930     0.9940    -0.1440 H     1 <1>   0.0800 
 35 H       -7.2160    -0.0080     1.1880 H     1 <1>   0.0800 
 36 H       -9.3000    -0.6490    -0.9140 H     1 <1>   0.0800 
 37 H       -9.9690     0.9800     0.8380 H     1 <1>   0.0800 
 38 H       -9.6060    -0.1970     2.0690 H     1 <1>   0.0800 
 39 H      -11.6760    -0.5260    -0.0470 H     1 <1>   0.4500 
 40 H      -11.9690    -0.1440     1.5310 H     1 <1>   0.4500 
 41 H      -11.3580    -1.6310     1.1580 H     1 <1>   0.4500 
@<TRIPOS>BOND
  1   1   2  1   
  2   1   3  1   
  3   2   4  ar  
  4   2   5  ar  
  5   3  18  1   
  6   3  19  1   
  7   3  20  1   
  8   4   6  ar  
  9   4  21  1   
 10   5   7  ar  
 11   5  22  1   
 12   6   8  ar  
 13   6  23  1   
 14   7   8  ar  
 15   7  24  1   
 16   8   9  1   
 17   9  10  1   
 18   9  25  1   
 19   9  26  1   
 20  10  11  1   
 21  10  12  1   
 22  10  27  1   
 23  11  13  1   
 24  11  28  1   
 25  11  29  1   
 26  12  14  1   
 27  12  30  1   
 28  12  31  1   
 29  13  15  1   
 30  13  32  1   
 31  13  33  1   
 32  14  15  1   
 33  14  34  1   
 34  14  35  1   
 35  15  16  1   
 36  15  36  1   
 37  16  17  1   
 38  16  37  1   
 39  16  38  1   
 40  17  39  1   
 41  17  40  1   
 42  17  41  1   
@<TRIPOS>SUBSTRUCTURE
  1 ****  10 GROUP 4 **** **** 0

# MOE 2024.06 (io_trps.svl 2023.06)
