@<TRIPOS>MOLECULE
2-Azepan-1-yl-1,1-dimethyl-ethylamine
36 36 1 0 0 
SMALL
USER_CHARGES


@<TRIPOS>ATOM
  1 N       -0.1640    -0.1720     0.0600 N.4   1 <1>  -0.9590 
  2 C        0.3990    -1.5590     0.0620 C.3   1 <1>   0.3430 
  3 C       -1.3190    -0.1650    -0.8890 C.3   1 <1>   0.3430 
  4 C        0.9240     0.8230    -0.3060 C.3   1 <1>   0.3430 
  5 C       -0.3820    -2.4610     1.0210 C.3   1 <1>  -0.1600 
  6 C       -2.6340    -0.2620    -0.1150 C.3   1 <1>  -0.1600 
  7 C        0.7440     2.3380     0.0990 C.3   1 <1>   0.5030 
  8 C       -1.8970    -2.5730     0.7680 C.3   1 <1>  -0.1600 
  9 C       -2.6630    -1.2710     1.0490 C.3   1 <1>  -0.1600 
 10 N        0.4840     2.5550     1.5370 N.4   1 <1>  -0.8530 
 11 C        2.0400     3.0860    -0.2130 C.3   1 <1>  -0.2400 
 12 C       -0.4080     3.0080    -0.6520 C.3   1 <1>  -0.2400 
 13 H       -0.5480    -0.0460     1.0030 H     1 <1>   0.4500 
 14 H        1.4290    -1.5430     0.3810 H     1 <1>   0.0800 
 15 H        0.3710    -1.9760    -0.9330 H     1 <1>   0.0800 
 16 H       -1.2470    -1.0070    -1.5610 H     1 <1>   0.0800 
 17 H       -1.3260     0.7280    -1.4920 H     1 <1>   0.0800 
 18 H        1.0770     0.7840    -1.3730 H     1 <1>   0.0800 
 19 H        1.8480     0.4910     0.1380 H     1 <1>   0.0800 
 20 H       -0.2060    -2.1460     2.0350 H     1 <1>   0.0800 
 21 H        0.0360    -3.4510     0.9390 H     1 <1>   0.0800 
 22 H       -3.3950    -0.5470    -0.8230 H     1 <1>   0.0800 
 23 H       -2.9170     0.7080     0.2520 H     1 <1>   0.0800 
 24 H       -2.2800    -3.3270     1.4370 H     1 <1>   0.0800 
 25 H       -2.0950    -2.9230    -0.2310 H     1 <1>   0.0800 
 26 H       -3.6950    -1.5210     1.2390 H     1 <1>   0.0800 
 27 H       -2.2920    -0.8210     1.9530 H     1 <1>   0.0800 
 28 H        1.2040     2.1420     2.1400 H     1 <1>   0.4500 
 29 H       -0.4440     2.2360     1.8290 H     1 <1>   0.4500 
 30 H        0.5070     3.5680     1.7210 H     1 <1>   0.4500 
 31 H        2.2640     3.0180    -1.2640 H     1 <1>   0.0800 
 32 H        2.8750     2.6680     0.3240 H     1 <1>   0.0800 
 33 H        1.9620     4.1330     0.0280 H     1 <1>   0.0800 
 34 H       -0.2840     2.8780    -1.7140 H     1 <1>   0.0800 
 35 H       -0.4310     4.0680    -0.4640 H     1 <1>   0.0800 
 36 H       -1.3610     2.5970    -0.3740 H     1 <1>   0.0800 
@<TRIPOS>BOND
  1   1   2  1   
  2   1   3  1   
  3   1   4  1   
  4   1  13  1   
  5   2   5  1   
  6   2  14  1   
  7   2  15  1   
  8   3   6  1   
  9   3  16  1   
 10   3  17  1   
 11   4   7  1   
 12   4  18  1   
 13   4  19  1   
 14   5   8  1   
 15   5  20  1   
 16   5  21  1   
 17   6   9  1   
 18   6  22  1   
 19   6  23  1   
 20   7  10  1   
 21   7  11  1   
 22   7  12  1   
 23   8   9  1   
 24   8  24  1   
 25   8  25  1   
 26   9  26  1   
 27   9  27  1   
 28  10  28  1   
 29  10  29  1   
 30  10  30  1   
 31  11  31  1   
 32  11  32  1   
 33  11  33  1   
 34  12  34  1   
 35  12  35  1   
 36  12  36  1   
@<TRIPOS>SUBSTRUCTURE
  1 ****   1 GROUP 4 **** **** 0

# MOE 2024.06 (io_trps.svl 2023.06)
