@<TRIPOS>MOLECULE
1-Methanesulfonyl-5-(4-phenyl-piperidine-1-sulfonyl)-2,3-dihydro-1H-indole
52 55 1 0 0 
SMALL
USER_CHARGES


@<TRIPOS>ATOM
  1 S        0.0220     0.1490    -2.8120 S.o2  1 <1>   1.4470 
  2 O       -0.1790     1.4310    -3.4560 O.2   1 <1>  -0.6500 
  3 O        0.1200    -1.0450    -3.6230 O.2   1 <1>  -0.6500 
  4 N       -1.2770    -0.0690    -1.7440 N.am  1 <1>  -0.8490 
  5 C        1.4500     0.2260    -1.7010 C.ar  1 <1>  -0.0090 
  6 C       -2.4730    -0.5470    -2.4420 C.3   1 <1>   0.1960 
  7 C       -1.5600     1.1430    -0.9680 C.3   1 <1>   0.1960 
  8 C        2.4060     1.2310    -1.8240 C.ar  1 <1>  -0.1500 
  9 C        1.6200    -0.7240    -0.6940 C.ar  1 <1>  -0.1500 
 10 C       -3.5660    -0.9000    -1.4300 C.3   1 <1>  -0.1600 
 11 C       -2.6070     0.8430     0.1050 C.3   1 <1>  -0.1600 
 12 C        3.4810     1.2730    -0.9570 C.ar  1 <1>  -0.1430 
 13 C        2.6980    -0.6790     0.1740 C.ar  1 <1>  -0.1500 
 14 C       -3.8930     0.2950    -0.5260 C.3   1 <1>   0.0630 
 15 C        3.6370     0.3320     0.0350 C.ar  1 <1>   0.1990 
 16 C        4.6150     2.2730    -0.9070 C.3   1 <1>  -0.0170 
 17 C       -4.9260    -0.0720     0.5360 C.ar  1 <1>  -0.1430 
 18 N        4.7780     0.5750     0.7700 N.am  1 <1>  -0.6930 
 19 C        5.4450     1.8090     0.3030 C.3   1 <1>   0.1960 
 20 C       -6.1560     0.5710     0.5560 C.ar  1 <1>  -0.1500 
 21 C       -4.6620    -1.0440     1.4930 C.ar  1 <1>  -0.1500 
 22 S        5.3280    -0.2270     2.1980 S.o2  1 <1>   1.3330 
 23 C       -7.1030     0.2510     1.5130 C.ar  1 <1>  -0.1500 
 24 C       -5.6080    -1.3660     2.4500 C.ar  1 <1>  -0.1500 
 25 O        4.1740    -0.6420     2.9590 O.2   1 <1>  -0.6500 
 26 O        6.3460     0.6180     2.7740 O.2   1 <1>  -0.6500 
 27 C        6.1190    -1.6650     1.5120 C.3   1 <1>  -0.1350 
 28 C       -6.8300    -0.7190     2.4610 C.ar  1 <1>  -0.1500 
 29 H       -2.2360    -1.4310    -3.0110 H     1 <1>   0.0800 
 30 H       -2.8250     0.2090    -3.1260 H     1 <1>   0.0800 
 31 H       -1.9150     1.9260    -1.6200 H     1 <1>   0.0800 
 32 H       -0.6600     1.4890    -0.4870 H     1 <1>   0.0800 
 33 H        2.3030     1.9770    -2.5940 H     1 <1>   0.1500 
 34 H        0.8880    -1.5080    -0.5880 H     1 <1>   0.1500 
 35 H       -3.2260    -1.7320    -0.8400 H     1 <1>   0.0800 
 36 H       -4.4530    -1.2090    -1.9530 H     1 <1>   0.0800 
 37 H       -2.8320     1.7430     0.6500 H     1 <1>   0.0800 
 38 H       -2.1950     0.1320     0.7980 H     1 <1>   0.0800 
 39 H        2.8020    -1.4140     0.9500 H     1 <1>   0.1500 
 40 H       -4.3050     1.0710    -1.1500 H     1 <1>   0.0800 
 41 H        4.2480     3.2720    -0.7570 H     1 <1>   0.0800 
 42 H        5.2020     2.2320    -1.8080 H     1 <1>   0.0800 
 43 H        5.4280     2.5470     1.0870 H     1 <1>   0.0800 
 44 H        6.4640     1.5980     0.0240 H     1 <1>   0.0800 
 45 H       -6.3860     1.3270    -0.1730 H     1 <1>   0.1500 
 46 H       -3.7170    -1.5570     1.4990 H     1 <1>   0.1500 
 47 H       -8.0530     0.7550     1.5190 H     1 <1>   0.1500 
 48 H       -5.3940    -2.1200     3.1870 H     1 <1>   0.1500 
 49 H        5.4080    -2.2540     0.9690 H     1 <1>   0.0800 
 50 H        6.5370    -2.2640     2.2980 H     1 <1>   0.0800 
 51 H        6.9070    -1.3710     0.8470 H     1 <1>   0.0800 
 52 H       -7.5660    -0.9680     3.2040 H     1 <1>   0.1500 
@<TRIPOS>BOND
  1   1   2  2   
  2   1   3  2   
  3   1   4  am  
  4   1   5  1   
  5   4   6  1   
  6   4   7  1   
  7   5   8  ar  
  8   5   9  ar  
  9   6  10  1   
 10   6  29  1   
 11   6  30  1   
 12   7  11  1   
 13   7  31  1   
 14   7  32  1   
 15   8  12  ar  
 16   8  33  1   
 17   9  13  ar  
 18   9  34  1   
 19  10  14  1   
 20  10  35  1   
 21  10  36  1   
 22  11  14  1   
 23  11  37  1   
 24  11  38  1   
 25  12  15  ar  
 26  12  16  1   
 27  13  15  ar  
 28  13  39  1   
 29  14  17  1   
 30  14  40  1   
 31  15  18  1   
 32  16  19  1   
 33  16  41  1   
 34  16  42  1   
 35  17  20  ar  
 36  17  21  ar  
 37  18  19  1   
 38  18  22  am  
 39  19  43  1   
 40  19  44  1   
 41  20  23  ar  
 42  20  45  1   
 43  21  24  ar  
 44  21  46  1   
 45  22  25  2   
 46  22  26  2   
 47  22  27  1   
 48  23  28  ar  
 49  23  47  1   
 50  24  28  ar  
 51  24  48  1   
 52  27  49  1   
 53  27  50  1   
 54  27  51  1   
 55  28  52  1   
@<TRIPOS>SUBSTRUCTURE
  1 ****   9 GROUP 4 **** **** 0

# MOE 2024.06 (io_trps.svl 2023.06)
