@<TRIPOS>MOLECULE
N-Cyclopropyl-2-[2-methyl-4-(morpholine-4-sulfonyl)-phenoxy]-acetamide
46 48 1 0 0 
SMALL
USER_CHARGES


@<TRIPOS>ATOM
  1 S       -0.1390     0.3300    -1.4110 S.o2  1 <1>   1.4470 
  2 O       -0.3960    -0.8520    -2.2050 O.2   1 <1>  -0.6500 
  3 O       -0.8610     1.5510    -1.6980 O.2   1 <1>  -0.6500 
  4 N       -0.4850    -0.0740     0.1980 N.am  1 <1>  -0.8490 
  5 C        1.6390     0.6800    -1.3720 C.ar  1 <1>  -0.0090 
  6 C        0.0540    -1.3890     0.5830 C.3   1 <1>   0.1960 
  7 C       -1.9340    -0.0530     0.4550 C.3   1 <1>   0.1960 
  8 C        2.1510     1.6570    -0.5250 C.ar  1 <1>  -0.1500 
  9 C        2.5310    -0.0210    -2.1770 C.ar  1 <1>  -0.1500 
 10 C       -0.3000    -1.7260     2.0430 C.3   1 <1>   0.1200 
 11 C       -2.2470    -0.4310     1.9140 C.3   1 <1>   0.1200 
 12 C        3.5060     1.9430    -0.4710 C.ar  1 <1>  -0.1430 
 13 C        3.8860     0.2500    -2.1410 C.ar  1 <1>  -0.1500 
 14 O       -1.6850    -1.6720     2.2360 O.3   1 <1>  -0.5600 
 15 C        4.3710     1.2360    -1.3000 C.ar  1 <1>   0.0830 
 16 C        4.0050     3.0150     0.4880 C.3   1 <1>  -0.0970 
 17 O        5.6940     1.4860    -1.3080 O.3   1 <1>  -0.3630 
 18 C        6.1170     2.6090    -2.0730 C.3   1 <1>   0.1810 
 19 C        6.9610     3.5560    -1.2320 C.2   1 <1>   0.5690 
 20 O        7.0830     4.7000    -1.6000 O.2   1 <1>  -0.5700 
 21 N        7.5430     3.0840    -0.0960 N.am  1 <1>  -0.5790 
 22 C        8.3650     3.8560     0.8450 C.3   1 <1>   0.0490 
 23 C        9.4550     3.1430     1.5720 C.3   1 <1>  -0.2000 
 24 C        8.2160     3.5690     2.3010 C.3   1 <1>  -0.2000 
 25 H        1.1250    -1.3880     0.4730 H     1 <1>   0.0800 
 26 H       -0.3470    -2.1610    -0.0550 H     1 <1>   0.0800 
 27 H       -2.4360    -0.7410    -0.2050 H     1 <1>   0.0800 
 28 H       -2.3200     0.9340     0.2630 H     1 <1>   0.0800 
 29 H        1.4630     2.1990     0.1020 H     1 <1>   0.1500 
 30 H        2.1590    -0.7860    -2.8390 H     1 <1>   0.1500 
 31 H        0.1700    -1.0300     2.7160 H     1 <1>   0.0800 
 32 H        0.0270    -2.7210     2.2860 H     1 <1>   0.0800 
 33 H       -3.3090    -0.5030     2.0600 H     1 <1>   0.0800 
 34 H       -1.8520     0.3110     2.5870 H     1 <1>   0.0800 
 35 H        4.5680    -0.2980    -2.7660 H     1 <1>   0.1500 
 36 H        3.2540     3.2580     1.2180 H     1 <1>   0.0800 
 37 H        4.2550     3.9090    -0.0530 H     1 <1>   0.0800 
 38 H        4.8780     2.6680     1.0120 H     1 <1>   0.0800 
 39 H        5.2570     3.1350    -2.4460 H     1 <1>   0.0800 
 40 H        6.6960     2.2470    -2.9010 H     1 <1>   0.0800 
 41 H        7.3510     2.1150     0.1660 H     1 <1>   0.3700 
 42 H        8.5300     4.8750     0.5300 H     1 <1>   0.1000 
 43 H       10.3700     3.6710     1.7730 H     1 <1>   0.1000 
 44 H        9.6140     2.0980     1.3750 H     1 <1>   0.1000 
 45 H        7.5120     2.8200     2.6180 H     1 <1>   0.1000 
 46 H        8.2920     4.3870     2.9970 H     1 <1>   0.1000 
@<TRIPOS>BOND
  1   1   2  2   
  2   1   3  2   
  3   1   4  am  
  4   1   5  1   
  5   4   6  1   
  6   4   7  1   
  7   5   8  ar  
  8   5   9  ar  
  9   6  10  1   
 10   6  25  1   
 11   6  26  1   
 12   7  11  1   
 13   7  27  1   
 14   7  28  1   
 15   8  12  ar  
 16   8  29  1   
 17   9  13  ar  
 18   9  30  1   
 19  10  14  1   
 20  10  31  1   
 21  10  32  1   
 22  11  14  1   
 23  11  33  1   
 24  11  34  1   
 25  12  15  ar  
 26  12  16  1   
 27  13  15  ar  
 28  13  35  1   
 29  15  17  1   
 30  16  36  1   
 31  16  37  1   
 32  16  38  1   
 33  17  18  1   
 34  18  19  1   
 35  18  39  1   
 36  18  40  1   
 37  19  20  2   
 38  19  21  am  
 39  21  22  1   
 40  21  41  1   
 41  22  23  1   
 42  22  24  1   
 43  22  42  1   
 44  23  24  1   
 45  23  43  1   
 46  23  44  1   
 47  24  45  1   
 48  24  46  1   
@<TRIPOS>SUBSTRUCTURE
  1 ****  12 GROUP 4 **** **** 0

# MOE 2024.06 (io_trps.svl 2023.06)
