@<TRIPOS>MOLECULE
3-Ethyl-8-(2-methoxy-5-methyl-phenyl)-1-methyl-5,6,7,8-tetrahydro-1H-1,3,4b,8,9-
51 54 1 0 0 
SMALL
USER_CHARGES


@<TRIPOS>ATOM
  1 O        0.7650     1.3560    -1.6430 O.2   1 <1>  -0.5740 
  2 C        1.7760     1.4820    -0.9820 C.2   1 <1>   0.6860 
  3 N        1.9830     2.6340    -0.2280 N.am  1 <1>  -0.4250 
  4 N        2.7240     0.4660    -0.9780 N.am  1 <1>  -0.4410 
  5 C        3.1160     2.7840     0.5610 C.2   1 <1>   0.6990 
  6 C        0.9810     3.7380    -0.2870 C.3   1 <1>   0.1330 
  7 C        3.8400     0.6230    -0.1820 C.2   1 <1>   0.4210 
  8 C        2.5310    -0.7720    -1.7900 C.3   1 <1>   0.0520 
  9 O        3.2920     3.7880     1.2310 O.2   1 <1>  -0.5740 
 10 C        4.0730     1.7210     0.5680 C.2   1 <1>   0.2710 
 11 C        1.3470     4.7130    -1.4060 C.3   1 <1>  -0.2470 
 12 N        4.8740    -0.2450    -0.0100 N.pl3 1 <1>  -0.7040 
 13 N        5.3040     1.5050     1.2040 N.pl3 1 <1>  -0.7670 
 14 C        5.7480     0.3110     0.8230 C.cat 1 <1>   1.0690 
 15 C        6.0300     2.4260     2.0980 C.3   1 <1>   0.3480 
 16 N        6.9090    -0.2190     1.2570 N.pl3 1 <1>  -0.5800 
 17 C        7.5170     2.0610     2.0630 C.3   1 <1>  -0.1670 
 18 C        7.3800    -1.4860     0.8510 C.ar  1 <1>   0.3050 
 19 C        7.7470     0.5510     2.2190 C.3   1 <1>   0.1610 
 20 C        7.5840    -1.8050    -0.5000 C.ar  1 <1>   0.0750 
 21 C        7.6420    -2.4510     1.8160 C.ar  1 <1>  -0.1570 
 22 O        7.3140    -0.8510    -1.4390 O.3   1 <1>  -0.3680 
 23 C        8.0420    -3.0700    -0.8490 C.ar  1 <1>  -0.1570 
 24 C        8.0990    -3.7090     1.4650 C.ar  1 <1>  -0.1510 
 25 C        7.8720    -0.9350    -2.7360 C.3   1 <1>   0.0320 
 26 C        8.2950    -4.0130     0.1300 C.ar  1 <1>  -0.1570 
 27 C        8.3810    -4.7560     2.5290 C.3   1 <1>  -0.1040 
 28 H        0.9500     4.2600     0.6550 H     1 <1>   0.0720 
 29 H       -0.0030     3.3360    -0.4630 H     1 <1>   0.0720 
 30 H        1.8280    -0.6000    -2.5870 H     1 <1>   0.0720 
 31 H        2.1520    -1.5610    -1.1630 H     1 <1>   0.0720 
 32 H        3.4640    -1.0800    -2.2290 H     1 <1>   0.0720 
 33 H        2.3110     5.1530    -1.2250 H     1 <1>   0.0720 
 34 H        0.6180     5.5020    -1.4450 H     1 <1>   0.0720 
 35 H        1.3500     4.2100    -2.3570 H     1 <1>   0.0720 
 36 H        5.0690    -1.1130    -0.5040 H     1 <1>   0.4450 
 37 H        5.6440     2.3290     3.0990 H     1 <1>   0.0720 
 38 H        5.8920     3.4450     1.7740 H     1 <1>   0.0720 
 39 H        8.0310     2.5870     2.8490 H     1 <1>   0.0720 
 40 H        7.9430     2.3910     1.1310 H     1 <1>   0.0720 
 41 H        8.7890     0.3280     2.0490 H     1 <1>   0.0720 
 42 H        7.4980     0.2470     3.2220 H     1 <1>   0.0720 
 43 H        7.4850    -2.2210     2.8530 H     1 <1>   0.1430 
 44 H        8.2060    -3.3490    -1.8740 H     1 <1>   0.1430 
 45 H        7.6730    -0.0110    -3.2500 H     1 <1>   0.0720 
 46 H        7.4140    -1.7510    -3.2670 H     1 <1>   0.0720 
 47 H        8.9350    -1.0810    -2.6530 H     1 <1>   0.0720 
 48 H        8.6490    -4.9910    -0.1520 H     1 <1>   0.1430 
 49 H        7.5590    -5.4480     2.5880 H     1 <1>   0.0720 
 50 H        8.5180    -4.2990     3.4920 H     1 <1>   0.0720 
 51 H        9.2740    -5.3040     2.2850 H     1 <1>   0.0720 
@<TRIPOS>BOND
  1   1   2  2   
  2   2   3  am  
  3   2   4  am  
  4   3   5  am  
  5   3   6  1   
  6   4   7  1   
  7   4   8  1   
  8   5   9  2   
  9   5  10  1   
 10   6  11  1   
 11   6  28  1   
 12   6  29  1   
 13   7  10  2   
 14   7  12  1   
 15   8  30  1   
 16   8  31  1   
 17   8  32  1   
 18  10  13  1   
 19  11  33  1   
 20  11  34  1   
 21  11  35  1   
 22  12  14  ar  
 23  12  36  1   
 24  13  14  ar  
 25  13  15  1   
 26  14  16  ar  
 27  15  17  1   
 28  15  37  1   
 29  15  38  1   
 30  16  18  1   
 31  16  19  1   
 32  17  19  1   
 33  17  39  1   
 34  17  40  1   
 35  18  20  ar  
 36  18  21  ar  
 37  19  41  1   
 38  19  42  1   
 39  20  22  1   
 40  20  23  ar  
 41  21  24  ar  
 42  21  43  1   
 43  22  25  1   
 44  23  26  ar  
 45  23  44  1   
 46  24  26  ar  
 47  24  27  1   
 48  25  45  1   
 49  25  46  1   
 50  25  47  1   
 51  26  48  1   
 52  27  49  1   
 53  27  50  1   
 54  27  51  1   
@<TRIPOS>SUBSTRUCTURE
  1 ****  12 GROUP 4 **** **** 0

# MOE 2024.06 (io_trps.svl 2023.06)
