@<TRIPOS>MOLECULE
3-Cyclohexyl-1-[3-(4-methoxy-phenyl)-[1,2,4]oxadiazol-5-ylmethyl]-1-methyl-urea
49 51 1 0 0 
SMALL
USER_CHARGES


@<TRIPOS>ATOM
  1 O        0.1230     1.1080     2.0960 O.2   1 <1>  -0.5700 
  2 C        0.4870     1.1370     0.9360 C.2   1 <1>   0.6900 
  3 N        1.8030     0.9550     0.6170 N.am  1 <1>  -0.6600 
  4 N       -0.4060     1.3650    -0.0550 N.am  1 <1>  -0.7300 
  5 C        2.8410     0.9820     1.6950 C.3   1 <1>   0.3200 
  6 C        2.2950     0.6290    -0.7530 C.3   1 <1>   0.0600 
  7 C       -1.8440     1.6090     0.1300 C.3   1 <1>   0.2200 
  8 C        4.0090     1.8910     1.3390 C.2   1 <1>   0.2980 
  9 C       -2.6260     0.6870    -0.8110 C.3   1 <1>  -0.1600 
 10 C       -2.1400     3.0840    -0.1630 C.3   1 <1>  -0.1600 
 11 O        3.8030     3.1810     1.2910 O.3   1 <1>  -0.0190 
 12 N        5.1930     1.5180     1.0670 N.2   1 <1>  -0.5650 
 13 C       -4.1340     0.9710    -0.7410 C.3   1 <1>  -0.1600 
 14 C       -3.6460     3.3730    -0.0930 C.3   1 <1>  -0.1600 
 15 N        4.9550     3.6720     0.9580 N.2   1 <1>  -0.4100 
 16 C        5.7800     2.6950     0.8240 C.2   1 <1>   0.4620 
 17 C       -4.4340     2.4480    -1.0310 C.3   1 <1>  -0.1600 
 18 C        7.1800     2.8110     0.4520 C.ar  1 <1>   0.0540 
 19 C        7.7560     4.0550     0.1770 C.ar  1 <1>  -0.1500 
 20 C        8.0100     1.6920     0.3490 C.ar  1 <1>  -0.1500 
 21 C        9.0850     4.1800    -0.1820 C.ar  1 <1>  -0.1500 
 22 C        9.3400     1.8090    -0.0090 C.ar  1 <1>  -0.1500 
 23 C        9.8900     3.0500    -0.2780 C.ar  1 <1>   0.0830 
 24 O       11.2000     3.0790    -0.6240 O.3   1 <1>  -0.3620 
 25 C       11.8550     4.2930    -0.9180 C.3   1 <1>   0.0400 
 26 H       -0.0410     1.5530    -0.9820 H     1 <1>   0.3700 
 27 H        3.2080    -0.0170     1.8470 H     1 <1>   0.0800 
 28 H        2.4200     1.3230     2.6240 H     1 <1>   0.0800 
 29 H        1.5110     0.1860    -1.3430 H     1 <1>   0.0800 
 30 H        3.1090    -0.0730    -0.6950 H     1 <1>   0.0800 
 31 H        2.6430     1.5260    -1.2370 H     1 <1>   0.0800 
 32 H       -2.1230     1.3890     1.1480 H     1 <1>   0.0800 
 33 H       -2.4440    -0.3370    -0.5340 H     1 <1>   0.0800 
 34 H       -2.2890     0.8330    -1.8220 H     1 <1>   0.0800 
 35 H       -1.7810     3.3360    -1.1450 H     1 <1>   0.0800 
 36 H       -1.6260     3.6960     0.5570 H     1 <1>   0.0800 
 37 H       -4.4970     0.7210     0.2420 H     1 <1>   0.0800 
 38 H       -4.6520     0.3500    -1.4510 H     1 <1>   0.0800 
 39 H       -3.8300     4.4000    -0.3580 H     1 <1>   0.0800 
 40 H       -3.9880     3.2280     0.9190 H     1 <1>   0.0800 
 41 H       -5.4880     2.6310    -0.9150 H     1 <1>   0.0800 
 42 H       -4.1730     2.6710    -2.0520 H     1 <1>   0.0800 
 43 H        7.1480     4.9400     0.2460 H     1 <1>   0.1500 
 44 H        7.6090     0.7150     0.5540 H     1 <1>   0.1500 
 45 H        9.4750     5.1600    -0.3830 H     1 <1>   0.1500 
 46 H        9.9630     0.9350    -0.0830 H     1 <1>   0.1500 
 47 H       12.8770     4.0690    -1.1620 H     1 <1>   0.0800 
 48 H       11.8170     4.9290    -0.0510 H     1 <1>   0.0800 
 49 H       11.3710     4.7560    -1.7590 H     1 <1>   0.0800 
@<TRIPOS>BOND
  1   1   2  2   
  2   2   3  am  
  3   2   4  am  
  4   3   5  1   
  5   3   6  1   
  6   4   7  1   
  7   4  26  1   
  8   5   8  1   
  9   5  27  1   
 10   5  28  1   
 11   6  29  1   
 12   6  30  1   
 13   6  31  1   
 14   7   9  1   
 15   7  10  1   
 16   7  32  1   
 17   8  11  1   
 18   8  12  2   
 19   9  13  1   
 20   9  33  1   
 21   9  34  1   
 22  10  14  1   
 23  10  35  1   
 24  10  36  1   
 25  11  15  1   
 26  12  16  1   
 27  13  17  1   
 28  13  37  1   
 29  13  38  1   
 30  14  17  1   
 31  14  39  1   
 32  14  40  1   
 33  15  16  2   
 34  16  18  1   
 35  17  41  1   
 36  17  42  1   
 37  18  19  ar  
 38  18  20  ar  
 39  19  21  ar  
 40  19  43  1   
 41  20  22  ar  
 42  20  44  1   
 43  21  23  ar  
 44  21  45  1   
 45  22  23  ar  
 46  22  46  1   
 47  23  24  1   
 48  24  25  1   
 49  25  47  1   
 50  25  48  1   
 51  25  49  1   
@<TRIPOS>SUBSTRUCTURE
  1 ****   8 GROUP 4 **** **** 0

# MOE 2024.06 (io_trps.svl 2023.06)
