@<TRIPOS>MOLECULE
3-Oxo-3,4-dihydro-2H-benzo[1,4]oxazine-6-carboxylic acid 4-tert-butyl-benzylamid
47 49 1 0 0 
SMALL
USER_CHARGES


@<TRIPOS>ATOM
  1 O        1.3110    -4.4270    -0.5320 O.2   1 <1>  -0.5700 
  2 C        2.0000    -3.5110    -0.1580 C.2   1 <1>   0.5690 
  3 N        3.1650    -3.2140    -0.7810 N.am  1 <1>  -0.5470 
  4 C        1.5590    -2.6420     1.0190 C.3   1 <1>   0.1810 
  5 C        4.0170    -2.2050    -0.3300 C.ar  1 <1>   0.1170 
  6 O        2.6070    -1.8480     1.5870 O.3   1 <1>  -0.3630 
  7 C        3.7130    -1.5410     0.8610 C.ar  1 <1>   0.0830 
  8 C        5.1590    -1.8550    -1.0300 C.ar  1 <1>  -0.1500 
  9 C        4.5590    -0.5550     1.3330 C.ar  1 <1>  -0.1500 
 10 C        6.0240    -0.8550    -0.5800 C.ar  1 <1>   0.0860 
 11 C        5.6980    -0.2190     0.6220 C.ar  1 <1>  -0.1500 
 12 C        7.2110    -0.5060    -1.3420 C.2   1 <1>   0.5440 
 13 O        7.6810    -1.2800    -2.1540 O.2   1 <1>  -0.5700 
 14 N        7.8260     0.6990    -1.1810 N.am  1 <1>  -0.7300 
 15 C        9.0680     1.1050    -1.8560 C.3   1 <1>   0.2840 
 16 C        9.5890     2.3390    -1.1460 C.ar  1 <1>  -0.1430 
 17 C        9.2840     3.6050    -1.6140 C.ar  1 <1>  -0.1500 
 18 C       10.3660     2.2150    -0.0080 C.ar  1 <1>  -0.1500 
 19 C        9.7520     4.7260    -0.9530 C.ar  1 <1>  -0.1500 
 20 C       10.8330     3.3390     0.6510 C.ar  1 <1>  -0.1500 
 21 C       10.5340     4.6200     0.1930 C.ar  1 <1>  -0.1430 
 22 C       11.0310     5.9030     0.8950 C.3   1 <1>   0.1430 
 23 C       11.8940     6.7200    -0.0790 C.3   1 <1>  -0.2400 
 24 C        9.8250     6.7450     1.3380 C.3   1 <1>  -0.2400 
 25 C       11.8830     5.6200     2.1430 C.3   1 <1>  -0.2400 
 26 H        3.4210    -3.8000    -1.5760 H     1 <1>   0.3700 
 27 H        1.1650    -3.2670     1.7980 H     1 <1>   0.0800 
 28 H        0.7890    -1.9720     0.6880 H     1 <1>   0.0800 
 29 H        5.3930    -2.3660    -1.9470 H     1 <1>   0.1500 
 30 H        4.3220    -0.0580     2.2570 H     1 <1>   0.1500 
 31 H        6.3450     0.5440     1.0170 H     1 <1>   0.1500 
 32 H        7.4460     1.4110    -0.5570 H     1 <1>   0.3700 
 33 H        8.8630     1.3180    -2.8910 H     1 <1>   0.0800 
 34 H        9.7890     0.3060    -1.8060 H     1 <1>   0.0800 
 35 H        8.6790     3.7250    -2.4960 H     1 <1>   0.1500 
 36 H       10.6100     1.2380     0.3730 H     1 <1>   0.1500 
 37 H        9.4960     5.6920    -1.3460 H     1 <1>   0.1500 
 38 H       11.4320     3.1840     1.5280 H     1 <1>   0.1500 
 39 H       11.3250     7.0320    -0.9350 H     1 <1>   0.0800 
 40 H       12.7220     6.1270    -0.4220 H     1 <1>   0.0800 
 41 H       12.2800     7.6010     0.4030 H     1 <1>   0.0800 
 42 H        9.1960     6.1680     1.9930 H     1 <1>   0.0800 
 43 H        9.2380     7.0560     0.4950 H     1 <1>   0.0800 
 44 H       10.1490     7.6260     1.8630 H     1 <1>   0.0800 
 45 H       11.3140     5.0700     2.8720 H     1 <1>   0.0800 
 46 H       12.2050     6.5400     2.5980 H     1 <1>   0.0800 
 47 H       12.7590     5.0540     1.8820 H     1 <1>   0.0800 
@<TRIPOS>BOND
  1   1   2  2   
  2   2   3  am  
  3   2   4  1   
  4   3   5  1   
  5   3  26  1   
  6   4   6  1   
  7   4  27  1   
  8   4  28  1   
  9   5   7  ar  
 10   5   8  ar  
 11   6   7  1   
 12   7   9  ar  
 13   8  10  ar  
 14   8  29  1   
 15   9  11  ar  
 16   9  30  1   
 17  10  11  ar  
 18  10  12  1   
 19  11  31  1   
 20  12  13  2   
 21  12  14  am  
 22  14  15  1   
 23  14  32  1   
 24  15  16  1   
 25  15  33  1   
 26  15  34  1   
 27  16  17  ar  
 28  16  18  ar  
 29  17  19  ar  
 30  17  35  1   
 31  18  20  ar  
 32  18  36  1   
 33  19  21  ar  
 34  19  37  1   
 35  20  21  ar  
 36  20  38  1   
 37  21  22  1   
 38  22  23  1   
 39  22  24  1   
 40  22  25  1   
 41  23  39  1   
 42  23  40  1   
 43  23  41  1   
 44  24  42  1   
 45  24  43  1   
 46  24  44  1   
 47  25  45  1   
 48  25  46  1   
 49  25  47  1   
@<TRIPOS>SUBSTRUCTURE
  1 ****  14 GROUP 4 **** **** 0

# MOE 2024.06 (io_trps.svl 2023.06)
