@<TRIPOS>MOLECULE
5,7-Dipropyl-2-pyridin-3-yl-1,3-diaza-tricyclo[3.3.1.1*3,7*]decan-6-ol
53 56 1 0 0 
SMALL
USER_CHARGES


@<TRIPOS>ATOM
  1 O        0.1030    -0.6090     0.7560 O.3   1 <1>  -0.6800 
  2 C        1.1920    -0.8920    -0.0600 C.3   1 <1>   0.2000 
  3 C        1.1310    -2.3730    -0.5260 C.3   1 <1>   0.0000 
  4 C        2.4890    -0.6270     0.7500 C.3   1 <1>   0.0000 
  5 C        1.1930    -3.2740     0.7180 C.3   1 <1>   0.3430 
  6 C        2.4130    -2.6680    -1.3260 C.3   1 <1>   0.1100 
  7 C       -0.0860    -2.7030    -1.4330 C.3   1 <1>  -0.1600 
  8 C        2.4750    -1.5820     1.9560 C.3   1 <1>   0.3430 
  9 C        3.7000    -1.0230    -0.1140 C.3   1 <1>   0.1100 
 10 C        2.6090     0.8350     1.2640 C.3   1 <1>  -0.1600 
 11 N        2.4480    -3.0080     1.4980 N.4   1 <1>  -0.9590 
 12 N        3.6000    -2.4460    -0.4760 N.3   1 <1>  -0.8100 
 13 C       -1.4540    -2.8620    -0.7400 C.3   1 <1>  -0.1600 
 14 C        2.7340     1.9370     0.1930 C.3   1 <1>  -0.1600 
 15 C        3.6580    -3.3130     0.7060 C.3   1 <1>   0.8360 
 16 C       -2.5290    -3.2470    -1.7600 C.3   1 <1>  -0.2400 
 17 C        4.1880     2.3160    -0.1190 C.3   1 <1>  -0.2400 
 18 C        3.7620    -4.7990     0.3560 C.ar  1 <1>  -0.1430 
 19 C        4.4650    -5.1740    -0.7840 C.ar  1 <1>   0.1600 
 20 C        3.2130    -5.8050     1.1390 C.ar  1 <1>  -0.1500 
 21 N        4.6310    -6.4160    -1.2020 N.ar  1 <1>  -0.6200 
 22 C        3.3840    -7.1060     0.7150 C.ar  1 <1>  -0.1500 
 23 C        4.0890    -7.3550    -0.4480 C.ar  1 <1>   0.1600 
 24 H       -0.6880    -0.4090     0.2130 H     1 <1>   0.4000 
 25 H        1.1450    -0.2370    -0.9130 H     1 <1>   0.0800 
 26 H        1.1600    -4.3060     0.4090 H     1 <1>   0.0800 
 27 H        0.3320    -3.0760     1.3370 H     1 <1>   0.0800 
 28 H        2.4050    -3.6840    -1.6850 H     1 <1>   0.0800 
 29 H        2.4660    -2.0270    -2.1920 H     1 <1>   0.0800 
 30 H        0.1120    -3.6310    -1.9440 H     1 <1>   0.0800 
 31 H       -0.1680    -1.9460    -2.1950 H     1 <1>   0.0800 
 32 H        1.6030    -1.3740     2.5560 H     1 <1>   0.0800 
 33 H        3.3490    -1.4060     2.5610 H     1 <1>   0.0800 
 34 H        4.6200    -0.8450     0.4190 H     1 <1>   0.0800 
 35 H        3.7230    -0.4340    -1.0150 H     1 <1>   0.0800 
 36 H        3.4430     0.9150     1.9400 H     1 <1>   0.0800 
 37 H        1.7320     1.0560     1.8510 H     1 <1>   0.0800 
 38 H        2.4730    -3.6220     2.3120 H     1 <1>   0.4500 
 39 H       -1.7600    -1.9480    -0.2670 H     1 <1>   0.0800 
 40 H       -1.4140    -3.6310     0.0110 H     1 <1>   0.0800 
 41 H        2.2480     2.8230     0.5680 H     1 <1>   0.0800 
 42 H        2.2240     1.6670    -0.7140 H     1 <1>   0.0800 
 43 H        4.5350    -3.0510     1.2770 H     1 <1>   0.0800 
 44 H       -2.6220    -2.4890    -2.5190 H     1 <1>   0.0800 
 45 H       -3.4810    -3.3530    -1.2690 H     1 <1>   0.0800 
 46 H       -2.2880    -4.1820    -2.2340 H     1 <1>   0.0800 
 47 H        4.6900     2.6480     0.7730 H     1 <1>   0.0800 
 48 H        4.2050     3.1250    -0.8290 H     1 <1>   0.0800 
 49 H        4.7390     1.4960    -0.5400 H     1 <1>   0.0800 
 50 H        4.9210    -4.4130    -1.3980 H     1 <1>   0.1500 
 51 H        2.6730    -5.6220     2.0510 H     1 <1>   0.1500 
 52 H        2.9800    -7.9290     1.2780 H     1 <1>   0.1500 
 53 H        4.2160    -8.3740    -0.7730 H     1 <1>   0.1500 
@<TRIPOS>BOND
  1   1   2  1   
  2   1  24  1   
  3   2   3  1   
  4   2   4  1   
  5   2  25  1   
  6   3   5  1   
  7   3   6  1   
  8   3   7  1   
  9   4   8  1   
 10   4   9  1   
 11   4  10  1   
 12   5  11  1   
 13   5  26  1   
 14   5  27  1   
 15   6  12  1   
 16   6  28  1   
 17   6  29  1   
 18   7  13  1   
 19   7  30  1   
 20   7  31  1   
 21   8  11  1   
 22   8  32  1   
 23   8  33  1   
 24   9  12  1   
 25   9  34  1   
 26   9  35  1   
 27  10  14  1   
 28  10  36  1   
 29  10  37  1   
 30  11  15  1   
 31  11  38  1   
 32  12  15  1   
 33  13  16  1   
 34  13  39  1   
 35  13  40  1   
 36  14  17  1   
 37  14  41  1   
 38  14  42  1   
 39  15  18  1   
 40  15  43  1   
 41  16  44  1   
 42  16  45  1   
 43  16  46  1   
 44  17  47  1   
 45  17  48  1   
 46  17  49  1   
 47  18  19  ar  
 48  18  20  ar  
 49  19  21  ar  
 50  19  50  1   
 51  20  22  ar  
 52  20  51  1   
 53  21  23  ar  
 54  22  23  ar  
 55  22  52  1   
 56  23  53  1   
@<TRIPOS>SUBSTRUCTURE
  1 ****   3 GROUP 4 **** **** 0

# MOE 2024.06 (io_trps.svl 2023.06)
