@<TRIPOS>MOLECULE
1-(4-Ethanesulfonylamino-benzoyl)-piperidine-4-carboxylic acid ethyl ester
49 50 1 0 0 
SMALL
USER_CHARGES


@<TRIPOS>ATOM
  1 S       -0.1060     0.5580     0.2650 S.o2  1 <1>   1.3330 
  2 O       -0.2550     1.6840    -0.6230 O.2   1 <1>  -0.6500 
  3 O       -1.1600     0.1700     1.1680 O.2   1 <1>  -0.6500 
  4 N        1.2180     0.8780     1.3110 N.am  1 <1>  -0.7570 
  5 C        0.4600    -0.8900    -0.6380 C.3   1 <1>  -0.0550 
  6 C        2.4660     1.4140     1.0430 C.ar  1 <1>   0.1990 
  7 C       -0.5600    -1.4490    -1.6450 C.3   1 <1>  -0.2400 
  8 C        3.3820     1.5300     2.0830 C.ar  1 <1>  -0.1500 
  9 C        2.8630     1.8400    -0.2230 C.ar  1 <1>  -0.1500 
 10 C        4.6490     2.0350     1.8660 C.ar  1 <1>  -0.1500 
 11 C        4.1310     2.3450    -0.4360 C.ar  1 <1>  -0.1500 
 12 C        5.0610     2.4450     0.5980 C.ar  1 <1>   0.0860 
 13 C        6.3910     2.9630     0.3560 C.2   1 <1>   0.5440 
 14 O        6.5100     4.0660    -0.1450 O.2   1 <1>  -0.5700 
 15 N        7.5300     2.2420     0.6690 N.am  1 <1>  -0.6600 
 16 C        7.5310     0.7760     0.9300 C.3   1 <1>   0.1400 
 17 C        8.8850     2.8510     0.5670 C.3   1 <1>   0.1400 
 18 C        8.3250     0.0630    -0.1670 C.3   1 <1>  -0.1600 
 19 C        9.6790     2.1520    -0.5400 C.3   1 <1>  -0.1600 
 20 C        9.7550     0.6290    -0.3100 C.3   1 <1>  -0.0190 
 21 C       10.5450    -0.0640    -1.4340 C.2   1 <1>   0.6590 
 22 O        9.9760    -0.5770    -2.3600 O.2   1 <1>  -0.5700 
 23 O       11.8750    -0.0890    -1.3940 O.3   1 <1>  -0.4300 
 24 C       12.6920     0.2790    -0.3080 C.3   1 <1>   0.1200 
 25 C       14.1430     0.0650    -0.7240 C.3   1 <1>  -0.2400 
 26 H        0.9150     0.7860     2.2760 H     1 <1>   0.4200 
 27 H        0.7050    -1.6630     0.0650 H     1 <1>   0.0800 
 28 H        1.3590    -0.6400    -1.1680 H     1 <1>   0.0800 
 29 H       -1.4640    -1.7360    -1.1350 H     1 <1>   0.0800 
 30 H       -0.1570    -2.3110    -2.1460 H     1 <1>   0.0800 
 31 H       -0.8040    -0.7020    -2.3800 H     1 <1>   0.0800 
 32 H        3.0960     1.2210     3.0720 H     1 <1>   0.1500 
 33 H        2.1810     1.7930    -1.0510 H     1 <1>   0.1500 
 34 H        5.3400     2.1230     2.6870 H     1 <1>   0.1500 
 35 H        4.4180     2.6790    -1.4190 H     1 <1>   0.1500 
 36 H        6.5310     0.3830     0.9460 H     1 <1>   0.0800 
 37 H        7.9810     0.5910     1.8910 H     1 <1>   0.0800 
 38 H        9.3900     2.7410     1.5110 H     1 <1>   0.0800 
 39 H        8.8170     3.9040     0.3520 H     1 <1>   0.0800 
 40 H        7.7950     0.1710    -1.0980 H     1 <1>   0.0800 
 41 H        8.3750    -0.9890     0.0550 H     1 <1>   0.0800 
 42 H       10.6660     2.5740    -0.5840 H     1 <1>   0.0800 
 43 H        9.2000     2.3530    -1.4840 H     1 <1>   0.0800 
 44 H       10.2530     0.4470     0.6230 H     1 <1>   0.0800 
 45 H       12.4460    -0.3440     0.5350 H     1 <1>   0.0800 
 46 H       12.5170     1.3140    -0.0720 H     1 <1>   0.0800 
 47 H       14.3090    -0.9680    -0.9710 H     1 <1>   0.0800 
 48 H       14.8000     0.3330     0.0840 H     1 <1>   0.0800 
 49 H       14.3790     0.6780    -1.5750 H     1 <1>   0.0800 
@<TRIPOS>BOND
  1   1   2  2   
  2   1   3  2   
  3   1   4  am  
  4   1   5  1   
  5   4   6  1   
  6   4  26  1   
  7   5   7  1   
  8   5  27  1   
  9   5  28  1   
 10   6   8  ar  
 11   6   9  ar  
 12   7  29  1   
 13   7  30  1   
 14   7  31  1   
 15   8  10  ar  
 16   8  32  1   
 17   9  11  ar  
 18   9  33  1   
 19  10  12  ar  
 20  10  34  1   
 21  11  12  ar  
 22  11  35  1   
 23  12  13  1   
 24  13  14  2   
 25  13  15  am  
 26  15  16  1   
 27  15  17  1   
 28  16  18  1   
 29  16  36  1   
 30  16  37  1   
 31  17  19  1   
 32  17  38  1   
 33  17  39  1   
 34  18  20  1   
 35  18  40  1   
 36  18  41  1   
 37  19  20  1   
 38  19  42  1   
 39  19  43  1   
 40  20  21  1   
 41  20  44  1   
 42  21  22  2   
 43  21  23  1   
 44  23  24  1   
 45  24  25  1   
 46  24  45  1   
 47  24  46  1   
 48  25  47  1   
 49  25  48  1   
 50  25  49  1   
@<TRIPOS>SUBSTRUCTURE
  1 ****  12 GROUP 4 **** **** 0

# MOE 2024.06 (io_trps.svl 2023.06)
