@<TRIPOS>MOLECULE
N-(5,6-Dimethyl-7-oxo-4,7-dihydro-[1,2,4]triazolo[1,5-a]pyrimidin-2-yl)-acetamid
27 28 1 0 0 
SMALL
USER_CHARGES


@<TRIPOS>ATOM
  1 O       -0.0870    -0.2400    -0.3900 O.2   1 <1>  -0.5700 
  2 C       -0.1870    -1.4490    -0.2120 C.2   1 <1>   0.5650 
  3 N       -1.4520    -2.0780    -0.1310 N.pl3 1 <1>   0.5610 
  4 C        0.9800    -2.2870    -0.0830 C.2   1 <1>  -0.1240 
  5 N       -2.7230    -1.6140    -0.1940 N.2   1 <1>  -0.7070 
  6 C       -1.5370    -3.4170     0.0450 C.2   1 <1>   0.2700 
  7 C        0.8530    -3.6400     0.0770 C.2   1 <1>  -0.0380 
  8 C        2.3340    -1.5730    -0.1340 C.3   1 <1>  -0.1020 
  9 C       -3.4220    -2.6860    -0.0520 C.2   1 <1>   0.5790 
 10 N       -2.7480    -3.8330     0.0980 N.2   1 <1>  -0.5650 
 11 N       -0.4020    -4.1990     0.1480 N.pl3 1 <1>  -0.5840 
 12 C        1.9830    -4.6520     0.1880 C.3   1 <1>  -0.1020 
 13 N       -4.7980    -2.7680    -0.0450 N.am  1 <1>  -0.4930 
 14 C       -5.7570    -1.8090    -0.1030 C.2   1 <1>   0.5690 
 15 O       -5.5510    -0.6240    -0.1620 O.2   1 <1>  -0.5700 
 16 C       -7.1920    -2.2760    -0.0860 C.3   1 <1>  -0.1790 
 17 H        2.3000    -0.6740     0.4570 H     1 <1>   0.0800 
 18 H        2.5630    -1.2990    -1.1480 H     1 <1>   0.0800 
 19 H        3.1350    -2.1720     0.2550 H     1 <1>   0.0800 
 20 H       -0.5470    -5.2060     0.2780 H     1 <1>   0.4000 
 21 H        1.7510    -5.5270    -0.3920 H     1 <1>   0.0800 
 22 H        2.1110    -4.9450     1.2150 H     1 <1>   0.0800 
 23 H        2.9140    -4.2670    -0.1810 H     1 <1>   0.0800 
 24 H       -5.1080    -3.7290     0.0290 H     1 <1>   0.3700 
 25 H       -7.3760    -2.9220    -0.9240 H     1 <1>   0.0800 
 26 H       -7.8490    -1.4280    -0.1530 H     1 <1>   0.0800 
 27 H       -7.3950    -2.8000     0.8290 H     1 <1>   0.0800 
@<TRIPOS>BOND
  1   1   2  2   
  2   2   3  1   
  3   2   4  1   
  4   3   5  1   
  5   3   6  1   
  6   4   7  2   
  7   4   8  1   
  8   5   9  2   
  9   6  10  2   
 10   6  11  1   
 11   7  11  1   
 12   7  12  1   
 13   8  17  1   
 14   8  18  1   
 15   8  19  1   
 16   9  10  1   
 17   9  13  1   
 18  11  20  1   
 19  12  21  1   
 20  12  22  1   
 21  12  23  1   
 22  13  14  am  
 23  13  24  1   
 24  14  15  2   
 25  14  16  1   
 26  16  25  1   
 27  16  26  1   
 28  16  27  1   
@<TRIPOS>SUBSTRUCTURE
  1 ****   3 GROUP 4 **** **** 0

# MOE 2024.06 (io_trps.svl 2023.06)
