@<TRIPOS>MOLECULE
8-(2,5-Dimethoxy-phenyl)-1-methyl-3-phenethyl-7,8-dihydro-1H,6H-imidazo[2,1-f]pu
59 63 1 0 0 
SMALL
USER_CHARGES


@<TRIPOS>ATOM
  1 O       -0.3380     0.2380     0.8840 O.2   1 <1>  -0.5740 
  2 C        0.7070     0.4090     0.2910 C.2   1 <1>   0.6870 
  3 N        0.8510     1.4890    -0.5740 N.am  1 <1>  -0.4250 
  4 N        1.7620    -0.4730     0.4910 N.am  1 <1>  -0.4410 
  5 C        2.0600     1.7500    -1.2050 C.2   1 <1>   0.7000 
  6 C       -0.3180     2.3880    -0.8240 C.3   1 <1>   0.1340 
  7 C        2.9600    -0.2100    -0.1460 C.2   1 <1>   0.4210 
  8 C        1.6120    -1.6540     1.3920 C.3   1 <1>   0.0530 
  9 O        2.1990     2.7210    -1.9300 O.2   1 <1>  -0.5740 
 10 C        3.1440     0.8500    -0.9680 C.2   1 <1>   0.2720 
 11 C       -0.3550     3.5260     0.1980 C.3   1 <1>  -0.0230 
 12 N        4.1310    -0.9110    -0.0640 N.pl3 1 <1>  -0.7030 
 13 N        4.4760     0.7710    -1.3870 N.pl3 1 <1>  -0.7670 
 14 C       -1.5520     4.4200    -0.0750 C.ar  1 <1>  -0.1500 
 15 C        5.0190    -0.2800    -0.8200 C.cat 1 <1>   1.0690 
 16 C        5.4390     1.5190    -2.2090 C.3   1 <1>   0.3490 
 17 C       -2.7810     4.1340     0.4990 C.ar  1 <1>  -0.1560 
 18 C       -1.4280     5.5220    -0.9070 C.ar  1 <1>  -0.1560 
 19 N        6.3060    -0.4560    -1.1320 N.pl3 1 <1>  -0.5790 
 20 C        6.7170     0.6600    -2.0440 C.3   1 <1>   0.1620 
 21 C       -3.8750     4.9420     0.2450 C.ar  1 <1>  -0.1560 
 22 C       -2.5220     6.3310    -1.1610 C.ar  1 <1>  -0.1560 
 23 C        7.1860    -1.4780    -0.7080 C.ar  1 <1>   0.3060 
 24 C       -3.7470     6.0420    -0.5850 C.ar  1 <1>  -0.1560 
 25 C        7.2280    -1.9370     0.6200 C.ar  1 <1>   0.0760 
 26 C        8.0430    -2.0510    -1.6360 C.ar  1 <1>  -0.1560 
 27 O        6.3910    -1.3680     1.5400 O.3   1 <1>  -0.3670 
 28 C        8.1130    -2.9500     0.9760 C.ar  1 <1>  -0.1560 
 29 C        8.9260    -3.0530    -1.2800 C.ar  1 <1>   0.0760 
 30 C        6.7180    -1.4000     2.9170 C.3   1 <1>   0.0330 
 31 C        8.9590    -3.5050     0.0330 C.ar  1 <1>  -0.1560 
 32 O        9.7170    -3.5370    -2.2700 O.3   1 <1>  -0.3670 
 33 C       10.6520    -4.5640    -2.0200 C.3   1 <1>   0.0330 
 34 H       -1.2340     1.8250    -0.7640 H     1 <1>   0.0740 
 35 H       -0.2620     2.8020    -1.8170 H     1 <1>   0.0740 
 36 H        0.5790    -1.9560     1.4470 H     1 <1>   0.0740 
 37 H        1.9490    -1.4000     2.3820 H     1 <1>   0.0740 
 38 H        2.1830    -2.4870     1.0200 H     1 <1>   0.0740 
 39 H        0.5470     4.1090     0.1340 H     1 <1>   0.0740 
 40 H       -0.4340     3.1230     1.1930 H     1 <1>   0.0740 
 41 H        4.3940    -1.6820     0.5490 H     1 <1>   0.4460 
 42 H        5.5800     2.5170    -1.8270 H     1 <1>   0.0740 
 43 H        5.1190     1.5600    -3.2370 H     1 <1>   0.0740 
 44 H       -2.8920     3.2810     1.1450 H     1 <1>   0.1440 
 45 H       -0.4820     5.7570    -1.3620 H     1 <1>   0.1440 
 46 H        7.5120     1.2360    -1.6000 H     1 <1>   0.0740 
 47 H        7.0380     0.2810    -2.9980 H     1 <1>   0.0740 
 48 H       -4.8260     4.7150     0.6940 H     1 <1>   0.1440 
 49 H       -2.4210     7.1850    -1.8070 H     1 <1>   0.1440 
 50 H       -4.5970     6.6700    -0.7820 H     1 <1>   0.1440 
 51 H        8.0380    -1.7350    -2.6610 H     1 <1>   0.1440 
 52 H        8.1630    -3.3280     1.9810 H     1 <1>   0.1440 
 53 H        6.0520    -0.7350     3.4390 H     1 <1>   0.0740 
 54 H        7.7340    -1.0690     3.0470 H     1 <1>   0.0740 
 55 H        6.5930    -2.4010     3.2890 H     1 <1>   0.0740 
 56 H        9.6340    -4.2850     0.3380 H     1 <1>   0.1440 
 57 H       11.1600    -4.7840    -2.9420 H     1 <1>   0.0740 
 58 H       10.1290    -5.4380    -1.6750 H     1 <1>   0.0740 
 59 H       11.3600    -4.2220    -1.2860 H     1 <1>   0.0740 
@<TRIPOS>BOND
  1   1   2  2   
  2   2   3  am  
  3   2   4  am  
  4   3   5  am  
  5   3   6  1   
  6   4   7  1   
  7   4   8  1   
  8   5   9  2   
  9   5  10  1   
 10   6  11  1   
 11   6  34  1   
 12   6  35  1   
 13   7  10  2   
 14   7  12  1   
 15   8  36  1   
 16   8  37  1   
 17   8  38  1   
 18  10  13  1   
 19  11  14  1   
 20  11  39  1   
 21  11  40  1   
 22  12  15  ar  
 23  12  41  1   
 24  13  15  ar  
 25  13  16  1   
 26  14  17  ar  
 27  14  18  ar  
 28  15  19  ar  
 29  16  20  1   
 30  16  42  1   
 31  16  43  1   
 32  17  21  ar  
 33  17  44  1   
 34  18  22  ar  
 35  18  45  1   
 36  19  20  1   
 37  19  23  1   
 38  20  46  1   
 39  20  47  1   
 40  21  24  ar  
 41  21  48  1   
 42  22  24  ar  
 43  22  49  1   
 44  23  25  ar  
 45  23  26  ar  
 46  24  50  1   
 47  25  27  1   
 48  25  28  ar  
 49  26  29  ar  
 50  26  51  1   
 51  27  30  1   
 52  28  31  ar  
 53  28  52  1   
 54  29  31  ar  
 55  29  32  1   
 56  30  53  1   
 57  30  54  1   
 58  30  55  1   
 59  31  56  1   
 60  32  33  1   
 61  33  57  1   
 62  33  58  1   
 63  33  59  1   
@<TRIPOS>SUBSTRUCTURE
  1 ****  10 GROUP 4 **** **** 0

# MOE 2024.06 (io_trps.svl 2023.06)
