@<TRIPOS>MOLECULE
4-(4-Dimethylamino-phenyl)-2,7-dimethyl-5-oxo-1,4,5,6,7,8-hexahydro-quinoline-3-
59 62 1 0 0 
SMALL
USER_CHARGES


@<TRIPOS>ATOM
  1 O        0.0070    -1.0190    -2.0160 O.2   1 <1>  -0.5700 
  2 C        0.0920    -1.8530    -1.1460 C.2   1 <1>   0.4950 
  3 C        1.3160    -2.3050    -0.5740 C.2   1 <1>  -0.1240 
  4 C       -1.2030    -2.4990    -0.6790 C.3   1 <1>  -0.0990 
  5 C        1.3950    -3.3250     0.3160 C.2   1 <1>  -0.0380 
  6 C        2.5890    -1.5790    -1.0130 C.3   1 <1>   0.3400 
  7 C       -1.0820    -3.1040     0.7320 C.3   1 <1>  -0.0800 
  8 N        2.6010    -3.7970     0.7760 N.pl3 1 <1>  -0.6000 
  9 C        0.1480    -4.0230     0.8380 C.3   1 <1>  -0.0220 
 10 C        3.8740    -2.2800    -0.5600 C.2   1 <1>  -0.1240 
 11 C        2.6010    -0.1710    -0.4160 C.ar  1 <1>  -0.1440 
 12 C       -2.3650    -3.8530     1.1180 C.3   1 <1>  -0.2400 
 13 C        3.8090    -3.3310     0.3010 C.2   1 <1>  -0.0380 
 14 C        5.0480    -1.6760    -1.1070 C.2   1 <1>   0.6160 
 15 C        2.6660     0.9460    -1.2380 C.ar  1 <1>  -0.1500 
 16 C        2.5690     0.0090     0.9610 C.ar  1 <1>  -0.1500 
 17 C        5.0060    -4.1130     0.8170 C.3   1 <1>  -0.1020 
 18 O        5.1500    -1.4920    -2.3050 O.2   1 <1>  -0.5700 
 19 N        6.0470    -1.2870    -0.2560 N.am  1 <1>  -0.5470 
 20 C        2.7060     2.2150    -0.6910 C.ar  1 <1>  -0.1500 
 21 C        2.6080     1.2800     1.5030 C.ar  1 <1>  -0.1500 
 22 C        7.2950    -0.7330    -0.4240 C.ar  1 <1>   0.4270 
 23 C        2.6790     2.3980     0.6870 C.ar  1 <1>   0.1000 
 24 N        7.9650    -0.6450     0.7160 N.ar  1 <1>  -0.6200 
 25 C        7.8110    -0.3020    -1.6460 C.ar  1 <1>  -0.1500 
 26 N        2.7340     3.6650     1.2580 N.pl3 1 <1>  -0.8380 
 27 C        9.1760    -0.1190     0.6410 C.ar  1 <1>   0.1600 
 28 C        9.0730     0.2430    -1.7090 C.ar  1 <1>  -0.1500 
 29 C        4.0930     4.2380     1.4150 C.3   1 <1>   0.1290 
 30 C        1.6970     4.6390     0.8330 C.3   1 <1>   0.1290 
 31 C        9.7700     0.3330    -0.5230 C.ar  1 <1>  -0.1500 
 32 H       -1.4650    -3.2630    -1.3880 H     1 <1>   0.0800 
 33 H       -1.9800    -1.7560    -0.6880 H     1 <1>   0.0800 
 34 H        2.5870    -1.5250    -2.0880 H     1 <1>   0.0800 
 35 H       -0.9450    -2.2910     1.4270 H     1 <1>   0.0800 
 36 H        2.6070    -4.5770     1.4430 H     1 <1>   0.4000 
 37 H        0.2900    -4.2930     1.8690 H     1 <1>   0.0800 
 38 H       -0.0080    -4.9250     0.2710 H     1 <1>   0.0800 
 39 H       -2.5450    -4.6750     0.4470 H     1 <1>   0.0800 
 40 H       -3.2110    -3.1880     1.0780 H     1 <1>   0.0800 
 41 H       -2.2880    -4.2370     2.1200 H     1 <1>   0.0800 
 42 H        2.6880     0.8290    -2.3070 H     1 <1>   0.1500 
 43 H        2.5150    -0.8440     1.6150 H     1 <1>   0.1500 
 44 H        4.8370    -5.1660     0.6860 H     1 <1>   0.0800 
 45 H        5.1540    -3.9120     1.8630 H     1 <1>   0.0800 
 46 H        5.9080    -3.8650     0.2870 H     1 <1>   0.0800 
 47 H        5.8320    -1.4050     0.7290 H     1 <1>   0.3700 
 48 H        2.7620     3.0730    -1.3320 H     1 <1>   0.1500 
 49 H        2.5830     1.4230     2.5670 H     1 <1>   0.1500 
 50 H        7.2300    -0.3880    -2.5430 H     1 <1>   0.1500 
 51 H        9.7290    -0.0430     1.5620 H     1 <1>   0.1500 
 52 H        9.4930     0.5830    -2.6400 H     1 <1>   0.1500 
 53 H        4.7950     3.4540     1.6420 H     1 <1>   0.0800 
 54 H        4.0960     4.9510     2.2200 H     1 <1>   0.0800 
 55 H        4.3970     4.7230     0.5040 H     1 <1>   0.0800 
 56 H        0.7810     4.1200     0.6090 H     1 <1>   0.0800 
 57 H        2.0230     5.1700    -0.0440 H     1 <1>   0.0800 
 58 H        1.5120     5.3400     1.6280 H     1 <1>   0.0800 
 59 H       10.7610     0.7490    -0.5020 H     1 <1>   0.1500 
@<TRIPOS>BOND
  1   1   2  2   
  2   2   3  1   
  3   2   4  1   
  4   3   5  2   
  5   3   6  1   
  6   4   7  1   
  7   4  32  1   
  8   4  33  1   
  9   5   8  1   
 10   5   9  1   
 11   6  10  1   
 12   6  11  1   
 13   6  34  1   
 14   7   9  1   
 15   7  12  1   
 16   7  35  1   
 17   8  13  1   
 18   8  36  1   
 19   9  37  1   
 20   9  38  1   
 21  10  13  2   
 22  10  14  1   
 23  11  15  ar  
 24  11  16  ar  
 25  12  39  1   
 26  12  40  1   
 27  12  41  1   
 28  13  17  1   
 29  14  18  2   
 30  14  19  am  
 31  15  20  ar  
 32  15  42  1   
 33  16  21  ar  
 34  16  43  1   
 35  17  44  1   
 36  17  45  1   
 37  17  46  1   
 38  19  22  1   
 39  19  47  1   
 40  20  23  ar  
 41  20  48  1   
 42  21  23  ar  
 43  21  49  1   
 44  22  24  ar  
 45  22  25  ar  
 46  23  26  1   
 47  24  27  ar  
 48  25  28  ar  
 49  25  50  1   
 50  26  29  1   
 51  26  30  1   
 52  27  31  ar  
 53  27  51  1   
 54  28  31  ar  
 55  28  52  1   
 56  29  53  1   
 57  29  54  1   
 58  29  55  1   
 59  30  56  1   
 60  30  57  1   
 61  30  58  1   
 62  31  59  1   
@<TRIPOS>SUBSTRUCTURE
  1 ****  11 GROUP 4 **** **** 0

# MOE 2024.06 (io_trps.svl 2023.06)
