@<TRIPOS>MOLECULE
Adamantane-1-carboxylic acid methyl-(3-phenyl-[1,2,4]oxadiazol-5-ylmethyl)-amide
51 55 1 0 0 
SMALL
USER_CHARGES


@<TRIPOS>ATOM
  1 O       -0.0410     0.6300    -1.1130 O.2   1 <1>  -0.5700 
  2 C        0.1550     1.6140    -0.4330 C.2   1 <1>   0.5690 
  3 N        1.3390     1.6920     0.2760 N.am  1 <1>  -0.6600 
  4 C       -0.9590     2.7070    -0.4290 C.3   1 <1>   0.0610 
  5 C        2.4470     0.7220    -0.0340 C.3   1 <1>   0.3200 
  6 C        1.6940     2.6370     1.3760 C.3   1 <1>   0.0600 
  7 C       -1.8120     2.6350     0.8660 C.3   1 <1>  -0.1600 
  8 C       -1.9410     2.4780    -1.6190 C.3   1 <1>  -0.1600 
  9 C       -0.3940     4.1460    -0.6060 C.3   1 <1>  -0.1600 
 10 C        3.7270     1.4370    -0.4430 C.2   1 <1>   0.2980 
 11 C       -2.9300     3.6970     0.8590 C.3   1 <1>  -0.0800 
 12 C       -3.0750     3.5190    -1.6480 C.3   1 <1>  -0.0800 
 13 C       -1.5200     5.1970    -0.6070 C.3   1 <1>  -0.0800 
 14 O        3.7410     2.0930    -1.5730 O.3   1 <1>  -0.0190 
 15 N        4.8110     1.4710     0.2210 N.2   1 <1>  -0.5650 
 16 C       -3.8680     3.4350    -0.3320 C.3   1 <1>  -0.1600 
 17 C       -2.3060     5.0980     0.7140 C.3   1 <1>  -0.1600 
 18 C       -2.4670     4.9230    -1.7870 C.3   1 <1>  -0.1600 
 19 N        4.9360     2.5910    -1.6340 N.2   1 <1>  -0.4100 
 20 C        5.5730     2.2260    -0.5780 C.2   1 <1>   0.4620 
 21 C        6.9480     2.5730    -0.2550 C.ar  1 <1>   0.0540 
 22 C        7.5670     2.1170     0.9110 C.ar  1 <1>  -0.1500 
 23 C        7.7100     3.3800    -1.1040 C.ar  1 <1>  -0.1500 
 24 C        8.8740     2.4500     1.2170 C.ar  1 <1>  -0.1500 
 25 C        9.0170     3.7160    -0.8050 C.ar  1 <1>  -0.1500 
 26 C        9.6040     3.2510     0.3580 C.ar  1 <1>  -0.1500 
 27 H        2.1760     0.0510    -0.8280 H     1 <1>   0.0800 
 28 H        2.6410     0.1270     0.8390 H     1 <1>   0.0800 
 29 H        0.8250     3.0720     1.8240 H     1 <1>   0.0800 
 30 H        2.3210     3.4230     0.9910 H     1 <1>   0.0800 
 31 H        2.2340     2.1150     2.1480 H     1 <1>   0.0800 
 32 H       -1.2080     2.7800     1.7380 H     1 <1>   0.0800 
 33 H       -2.2500     1.6550     0.9460 H     1 <1>   0.0800 
 34 H       -2.3790     1.4970    -1.5470 H     1 <1>   0.0800 
 35 H       -1.3980     2.5150    -2.5470 H     1 <1>   0.0800 
 36 H        0.1560     4.2030    -1.5290 H     1 <1>   0.0800 
 37 H        0.2820     4.4040     0.1810 H     1 <1>   0.0800 
 38 H       -3.4890     3.6400     1.7770 H     1 <1>   0.0800 
 39 H       -3.7290     3.3220    -2.4800 H     1 <1>   0.0800 
 40 H       -1.0970     6.1820    -0.7060 H     1 <1>   0.0800 
 41 H       -4.6630     4.1600    -0.3380 H     1 <1>   0.0800 
 42 H       -4.3150     2.4610    -0.2380 H     1 <1>   0.0800 
 43 H       -1.6510     5.2940     1.5450 H     1 <1>   0.0800 
 44 H       -3.0820     5.8420     0.7290 H     1 <1>   0.0800 
 45 H       -3.2500     5.6610    -1.8060 H     1 <1>   0.0800 
 46 H       -1.9260     4.9960    -2.7150 H     1 <1>   0.0800 
 47 H        7.0160     1.4920     1.5920 H     1 <1>   0.1500 
 48 H        7.2700     3.7500    -2.0140 H     1 <1>   0.1500 
 49 H        9.3260     2.0850     2.1230 H     1 <1>   0.1500 
 50 H        9.5800     4.3400    -1.4780 H     1 <1>   0.1500 
 51 H       10.6210     3.5120     0.5920 H     1 <1>   0.1500 
@<TRIPOS>BOND
  1   1   2  2   
  2   2   3  am  
  3   2   4  1   
  4   3   5  1   
  5   3   6  1   
  6   4   7  1   
  7   4   8  1   
  8   4   9  1   
  9   5  10  1   
 10   5  27  1   
 11   5  28  1   
 12   6  29  1   
 13   6  30  1   
 14   6  31  1   
 15   7  11  1   
 16   7  32  1   
 17   7  33  1   
 18   8  12  1   
 19   8  34  1   
 20   8  35  1   
 21   9  13  1   
 22   9  36  1   
 23   9  37  1   
 24  10  14  1   
 25  10  15  2   
 26  11  16  1   
 27  11  17  1   
 28  11  38  1   
 29  12  16  1   
 30  12  18  1   
 31  12  39  1   
 32  13  17  1   
 33  13  18  1   
 34  13  40  1   
 35  14  19  1   
 36  15  20  1   
 37  16  41  1   
 38  16  42  1   
 39  17  43  1   
 40  17  44  1   
 41  18  45  1   
 42  18  46  1   
 43  19  20  2   
 44  20  21  1   
 45  21  22  ar  
 46  21  23  ar  
 47  22  24  ar  
 48  22  47  1   
 49  23  25  ar  
 50  23  48  1   
 51  24  26  ar  
 52  24  49  1   
 53  25  26  ar  
 54  25  50  1   
 55  26  51  1   
@<TRIPOS>SUBSTRUCTURE
  1 ****   3 GROUP 4 **** **** 0

# MOE 2024.06 (io_trps.svl 2023.06)
