@<TRIPOS>MOLECULE
3-Cyclohexyl-N-[3-(3,4-dimethoxy-phenyl)-[1,2,4]oxadiazol-5-ylmethyl]-N-methyl-p
57 59 1 0 0 
SMALL
USER_CHARGES


@<TRIPOS>ATOM
  1 O        0.5330     0.6840    -1.5630 O.2   1 <1>  -0.5700 
  2 C        0.7890     1.2110    -0.5070 C.2   1 <1>   0.5690 
  3 N        2.0380     1.1100     0.0500 N.am  1 <1>  -0.6600 
  4 C       -0.3030     2.0010     0.2100 C.3   1 <1>  -0.0990 
  5 C        3.1520     0.4570    -0.7130 C.3   1 <1>   0.3200 
  6 C        2.4290     1.6610     1.3810 C.3   1 <1>   0.0600 
  7 C       -1.5720     2.2450    -0.6340 C.3   1 <1>  -0.1600 
  8 C        4.3100     1.4140    -0.9540 C.2   1 <1>   0.2980 
  9 C       -2.6980     2.9660     0.1330 C.3   1 <1>  -0.0800 
 10 O        4.1290     2.4250    -1.7620 O.3   1 <1>  -0.0190 
 11 N        5.4650     1.3370    -0.4290 N.2   1 <1>  -0.5650 
 12 C       -3.9720     2.9870    -0.7290 C.3   1 <1>  -0.1600 
 13 C       -2.3050     4.4010     0.5380 C.3   1 <1>  -0.1600 
 14 N        5.2660     3.0470    -1.7490 N.2   1 <1>  -0.4100 
 15 C        6.0600     2.4080    -0.9640 C.2   1 <1>   0.4620 
 16 C       -5.1260     3.7120    -0.0240 C.3   1 <1>  -0.1600 
 17 C       -3.4610     5.1310     1.2370 C.3   1 <1>  -0.1600 
 18 C        7.4340     2.7760    -0.6660 C.ar  1 <1>   0.0540 
 19 C       -4.7240     5.1380     0.3680 C.3   1 <1>  -0.1600 
 20 C        8.2340     2.0140     0.1850 C.ar  1 <1>  -0.1500 
 21 C        8.0150     3.9150    -1.2230 C.ar  1 <1>  -0.1500 
 22 C        9.5430     2.3530     0.4750 C.ar  1 <1>   0.0820 
 23 C        9.3180     4.2810    -0.9400 C.ar  1 <1>  -0.1500 
 24 O       10.1870     1.4940     1.3150 O.3   1 <1>  -0.3630 
 25 C       10.1020     3.5150    -0.0810 C.ar  1 <1>   0.0820 
 26 C       11.5640     1.2280     1.1640 C.3   1 <1>   0.0400 
 27 O       11.3760     3.8820     0.2360 O.3   1 <1>  -0.3630 
 28 C       11.9190     5.1260    -0.1490 C.3   1 <1>   0.0400 
 29 H        0.1150     2.9460     0.4960 H     1 <1>   0.0800 
 30 H       -0.5750     1.4620     1.0980 H     1 <1>   0.0800 
 31 H        2.8090     0.0940    -1.6650 H     1 <1>   0.0800 
 32 H        3.5080    -0.3880    -0.1520 H     1 <1>   0.0800 
 33 H        1.5770     1.7510     2.0300 H     1 <1>   0.0800 
 34 H        2.8790     2.6310     1.2540 H     1 <1>   0.0800 
 35 H        3.1430     1.0080     1.8540 H     1 <1>   0.0800 
 36 H       -1.9420     1.2900    -0.9670 H     1 <1>   0.0800 
 37 H       -1.3100     2.8110    -1.5120 H     1 <1>   0.0800 
 38 H       -2.9130     2.4060     1.0280 H     1 <1>   0.0800 
 39 H       -4.2760     1.9790    -0.9530 H     1 <1>   0.0800 
 40 H       -3.7650     3.4830    -1.6630 H     1 <1>   0.0800 
 41 H       -2.0190     4.9550    -0.3390 H     1 <1>   0.0800 
 42 H       -1.4650     4.3840     1.2080 H     1 <1>   0.0800 
 43 H       -5.4050     3.1630     0.8590 H     1 <1>   0.0800 
 44 H       -5.9820     3.7460    -0.6760 H     1 <1>   0.0800 
 45 H       -3.1690     6.1440     1.4540 H     1 <1>   0.0800 
 46 H       -3.6770     4.6420     2.1720 H     1 <1>   0.0800 
 47 H       -5.5300     5.6060     0.9060 H     1 <1>   0.0800 
 48 H       -4.5410     5.7140    -0.5220 H     1 <1>   0.0800 
 49 H        7.8310     1.1250     0.6350 H     1 <1>   0.1500 
 50 H        7.4340     4.5290    -1.8900 H     1 <1>   0.1500 
 51 H        9.7010     5.1710    -1.4010 H     1 <1>   0.1500 
 52 H       11.7770     0.2850     1.6350 H     1 <1>   0.0800 
 53 H       12.1230     2.0080     1.6480 H     1 <1>   0.0800 
 54 H       11.8020     1.1800     0.1170 H     1 <1>   0.0800 
 55 H       12.9000     5.2090     0.2820 H     1 <1>   0.0800 
 56 H       11.2880     5.9130     0.2250 H     1 <1>   0.0800 
 57 H       11.9880     5.1600    -1.2220 H     1 <1>   0.0800 
@<TRIPOS>BOND
  1   1   2  2   
  2   2   3  am  
  3   2   4  1   
  4   3   5  1   
  5   3   6  1   
  6   4   7  1   
  7   4  29  1   
  8   4  30  1   
  9   5   8  1   
 10   5  31  1   
 11   5  32  1   
 12   6  33  1   
 13   6  34  1   
 14   6  35  1   
 15   7   9  1   
 16   7  36  1   
 17   7  37  1   
 18   8  10  1   
 19   8  11  2   
 20   9  12  1   
 21   9  13  1   
 22   9  38  1   
 23  10  14  1   
 24  11  15  1   
 25  12  16  1   
 26  12  39  1   
 27  12  40  1   
 28  13  17  1   
 29  13  41  1   
 30  13  42  1   
 31  14  15  2   
 32  15  18  1   
 33  16  19  1   
 34  16  43  1   
 35  16  44  1   
 36  17  19  1   
 37  17  45  1   
 38  17  46  1   
 39  18  20  ar  
 40  18  21  ar  
 41  19  47  1   
 42  19  48  1   
 43  20  22  ar  
 44  20  49  1   
 45  21  23  ar  
 46  21  50  1   
 47  22  24  1   
 48  22  25  ar  
 49  23  25  ar  
 50  23  51  1   
 51  24  26  1   
 52  25  27  1   
 53  26  52  1   
 54  26  53  1   
 55  26  54  1   
 56  27  28  1   
 57  28  55  1   
 58  28  56  1   
 59  28  57  1   
@<TRIPOS>SUBSTRUCTURE
  1 ****   8 GROUP 4 **** **** 0

# MOE 2024.06 (io_trps.svl 2023.06)
