@<TRIPOS>MOLECULE
1-[3-(3,4-Dimethoxy-phenyl)-[1,2,4]oxadiazol-5-ylmethyl]-1-ethyl-3-propyl-urea
49 50 1 0 0 
SMALL
USER_CHARGES


@<TRIPOS>ATOM
  1 O        0.3220     0.9340     1.6010 O.2   1 <1>  -0.5700 
  2 C        0.5400     1.7490     0.7240 C.2   1 <1>   0.6900 
  3 N        1.5560     2.6550     0.8600 N.am  1 <1>  -0.6600 
  4 N       -0.2250     1.7560    -0.3950 N.am  1 <1>  -0.7300 
  5 C        2.5400     2.4410     1.9760 C.3   1 <1>   0.3200 
  6 C        1.6010     3.9520     0.1260 C.3   1 <1>   0.1400 
  7 C       -1.3540     0.8440    -0.6610 C.3   1 <1>   0.1400 
  8 C        3.9460     2.9490     1.6760 C.2   1 <1>   0.2980 
  9 C        1.0200     5.0590     1.0020 C.3   1 <1>  -0.2400 
 10 C       -2.4690     1.6230    -1.3570 C.3   1 <1>  -0.1600 
 11 O        4.2280     4.1940     1.9610 O.3   1 <1>  -0.0190 
 12 N        4.8990     2.2800     1.1700 N.2   1 <1>  -0.5650 
 13 C       -3.6730     0.7230    -1.6570 C.3   1 <1>  -0.2400 
 14 N        5.4630     4.3310     1.5950 N.2   1 <1>  -0.4100 
 15 C        5.8650     3.2020     1.1260 C.2   1 <1>   0.4620 
 16 C        7.1910     2.9250     0.6000 C.ar  1 <1>   0.0540 
 17 C        7.5160     1.6910     0.0370 C.ar  1 <1>  -0.1500 
 18 C        8.2010     3.8870     0.6340 C.ar  1 <1>  -0.1500 
 19 C        8.7740     1.4130    -0.4670 C.ar  1 <1>   0.0830 
 20 C        9.4630     3.6360     0.1280 C.ar  1 <1>  -0.1500 
 21 O        8.9250     0.1550    -0.9710 O.3   1 <1>  -0.3630 
 22 C        9.7700     2.4010    -0.4390 C.ar  1 <1>   0.0830 
 23 C       10.1480    -0.5350    -0.8370 C.3   1 <1>   0.0400 
 24 O       10.9990     2.1500    -0.9740 O.3   1 <1>  -0.3630 
 25 C       11.9710     3.1600    -1.1330 C.3   1 <1>   0.0400 
 26 H        0.1040     2.3070    -1.1820 H     1 <1>   0.3700 
 27 H        2.6190     1.3880     2.1830 H     1 <1>   0.0800 
 28 H        2.1710     2.9200     2.8650 H     1 <1>   0.0800 
 29 H        1.0300     3.8900    -0.7820 H     1 <1>   0.0800 
 30 H        2.6140     4.1870    -0.1550 H     1 <1>   0.0800 
 31 H       -1.7170     0.4310     0.2670 H     1 <1>   0.0800 
 32 H       -1.0150     0.0340    -1.2840 H     1 <1>   0.0800 
 33 H        0.0080     4.8210     1.2770 H     1 <1>   0.0800 
 34 H        1.0150     5.9850     0.4560 H     1 <1>   0.0800 
 35 H        1.6090     5.1970     1.8900 H     1 <1>   0.0800 
 36 H       -2.1000     2.0330    -2.2810 H     1 <1>   0.0800 
 37 H       -2.7850     2.4310    -0.7210 H     1 <1>   0.0800 
 38 H       -3.3880    -0.0880    -2.3040 H     1 <1>   0.0800 
 39 H       -4.4470     1.2920    -2.1420 H     1 <1>   0.0800 
 40 H       -4.0730     0.3140    -0.7450 H     1 <1>   0.0800 
 41 H        6.7700     0.9180    -0.0100 H     1 <1>   0.1500 
 42 H        7.9930     4.8510     1.0650 H     1 <1>   0.1500 
 43 H       10.1920     4.4210     0.1850 H     1 <1>   0.1500 
 44 H        9.9510    -1.5870    -0.9330 H     1 <1>   0.0800 
 45 H       10.5690    -0.3240     0.1300 H     1 <1>   0.0800 
 46 H       10.8120    -0.2180    -1.6210 H     1 <1>   0.0800 
 47 H       12.8160     2.7330    -1.6410 H     1 <1>   0.0800 
 48 H       12.2710     3.5130    -0.1620 H     1 <1>   0.0800 
 49 H       11.5540     3.9570    -1.7240 H     1 <1>   0.0800 
@<TRIPOS>BOND
  1   1   2  2   
  2   2   3  am  
  3   2   4  am  
  4   3   5  1   
  5   3   6  1   
  6   4   7  1   
  7   4  26  1   
  8   5   8  1   
  9   5  27  1   
 10   5  28  1   
 11   6   9  1   
 12   6  29  1   
 13   6  30  1   
 14   7  10  1   
 15   7  31  1   
 16   7  32  1   
 17   8  11  1   
 18   8  12  2   
 19   9  33  1   
 20   9  34  1   
 21   9  35  1   
 22  10  13  1   
 23  10  36  1   
 24  10  37  1   
 25  11  14  1   
 26  12  15  1   
 27  13  38  1   
 28  13  39  1   
 29  13  40  1   
 30  14  15  2   
 31  15  16  1   
 32  16  17  ar  
 33  16  18  ar  
 34  17  19  ar  
 35  17  41  1   
 36  18  20  ar  
 37  18  42  1   
 38  19  21  1   
 39  19  22  ar  
 40  20  22  ar  
 41  20  43  1   
 42  21  23  1   
 43  22  24  1   
 44  23  44  1   
 45  23  45  1   
 46  23  46  1   
 47  24  25  1   
 48  25  47  1   
 49  25  48  1   
 50  25  49  1   
@<TRIPOS>SUBSTRUCTURE
  1 ****  12 GROUP 4 **** **** 0

# MOE 2024.06 (io_trps.svl 2023.06)
