@<TRIPOS>MOLECULE
Cyclohexanecarboxylic acid ethyl-[3-(4-methoxy-phenyl)-[1,2,4]oxadiazol-5-ylmeth
50 52 1 0 0 
SMALL
USER_CHARGES


@<TRIPOS>ATOM
  1 O        0.0220     0.5630     0.7610 O.2   1 <1>  -0.5700 
  2 C        0.2540     1.7050     0.4390 C.2   1 <1>   0.5690 
  3 N        1.4780     2.2700     0.7170 N.am  1 <1>  -0.6600 
  4 C       -0.8600     2.4920    -0.2730 C.3   1 <1>  -0.0190 
  5 C        2.5710     1.3990     1.2790 C.3   1 <1>   0.3200 
  6 C        1.8280     3.7130     0.5420 C.3   1 <1>   0.1400 
  7 C       -1.6670     3.3420     0.7300 C.3   1 <1>  -0.1600 
  8 C       -1.8160     1.5810    -1.0740 C.3   1 <1>  -0.1600 
  9 C        3.8900     1.5550     0.5360 C.2   1 <1>   0.2980 
 10 C        2.0600     4.3720     1.9010 C.3   1 <1>  -0.2400 
 11 C       -2.7650     4.1550     0.0300 C.3   1 <1>  -0.1600 
 12 C       -2.9110     2.3920    -1.7830 C.3   1 <1>  -0.1600 
 13 O        3.9610     1.1430    -0.7020 O.3   1 <1>  -0.0190 
 14 N        4.9560     2.0660     1.0020 N.2   1 <1>  -0.5650 
 15 C       -3.6980     3.2470    -0.7820 C.3   1 <1>  -0.1600 
 16 N        5.1770     1.4190    -1.0570 N.2   1 <1>  -0.4100 
 17 C        5.7700     1.9650    -0.0540 C.2   1 <1>   0.4620 
 18 C        7.1460     2.4310    -0.0320 C.ar  1 <1>   0.0540 
 19 C        7.7070     3.0130     1.1070 C.ar  1 <1>  -0.1500 
 20 C        7.9680     2.3190    -1.1560 C.ar  1 <1>  -0.1500 
 21 C        9.0150     3.4590     1.1220 C.ar  1 <1>  -0.1500 
 22 C        9.2780     2.7620    -1.1510 C.ar  1 <1>  -0.1500 
 23 C        9.8120     3.3390    -0.0030 C.ar  1 <1>   0.0820 
 24 O       11.0820     3.8000     0.0910 O.3   1 <1>  -0.3620 
 25 C       11.9750     3.7250    -0.9980 C.3   1 <1>   0.0400 
 26 H       -0.4020     3.1430    -0.9920 H     1 <1>   0.0800 
 27 H        2.2950     0.3600     1.2370 H     1 <1>   0.0800 
 28 H        2.7190     1.6490     2.3130 H     1 <1>   0.0800 
 29 H        1.0410     4.2450     0.0410 H     1 <1>   0.0800 
 30 H        2.7110     3.8060    -0.0670 H     1 <1>   0.0800 
 31 H       -1.0130     4.0110     1.2580 H     1 <1>   0.0800 
 32 H       -2.1180     2.6880     1.4580 H     1 <1>   0.0800 
 33 H       -2.2810     0.8730    -0.4080 H     1 <1>   0.0800 
 34 H       -1.2540     1.0220    -1.8020 H     1 <1>   0.0800 
 35 H        1.2100     4.2210     2.5420 H     1 <1>   0.0800 
 36 H        2.2020     5.4290     1.7660 H     1 <1>   0.0800 
 37 H        2.9420     3.9780     2.3720 H     1 <1>   0.0800 
 38 H       -2.3120     4.8780    -0.6270 H     1 <1>   0.0800 
 39 H       -3.3390     4.6920     0.7650 H     1 <1>   0.0800 
 40 H       -3.5830     1.7220    -2.2900 H     1 <1>   0.0800 
 41 H       -2.4610     3.0310    -2.5240 H     1 <1>   0.0800 
 42 H       -4.4200     3.8470    -1.3080 H     1 <1>   0.0800 
 43 H       -4.2360     2.6000    -0.1100 H     1 <1>   0.0800 
 44 H        7.1110     3.1190     1.9970 H     1 <1>   0.1500 
 45 H        7.5710     1.8750    -2.0530 H     1 <1>   0.1500 
 46 H        9.4300     3.9040     2.0080 H     1 <1>   0.1500 
 47 H        9.8640     2.6510    -2.0420 H     1 <1>   0.1500 
 48 H       12.9140     4.1480    -0.6890 H     1 <1>   0.0800 
 49 H       11.5720     4.2890    -1.8200 H     1 <1>   0.0800 
 50 H       12.1100     2.6920    -1.2670 H     1 <1>   0.0800 
@<TRIPOS>BOND
  1   1   2  2   
  2   2   3  am  
  3   2   4  1   
  4   3   5  1   
  5   3   6  1   
  6   4   7  1   
  7   4   8  1   
  8   4  26  1   
  9   5   9  1   
 10   5  27  1   
 11   5  28  1   
 12   6  10  1   
 13   6  29  1   
 14   6  30  1   
 15   7  11  1   
 16   7  31  1   
 17   7  32  1   
 18   8  12  1   
 19   8  33  1   
 20   8  34  1   
 21   9  13  1   
 22   9  14  2   
 23  10  35  1   
 24  10  36  1   
 25  10  37  1   
 26  11  15  1   
 27  11  38  1   
 28  11  39  1   
 29  12  15  1   
 30  12  40  1   
 31  12  41  1   
 32  13  16  1   
 33  14  17  1   
 34  15  42  1   
 35  15  43  1   
 36  16  17  2   
 37  17  18  1   
 38  18  19  ar  
 39  18  20  ar  
 40  19  21  ar  
 41  19  44  1   
 42  20  22  ar  
 43  20  45  1   
 44  21  23  ar  
 45  21  46  1   
 46  22  23  ar  
 47  22  47  1   
 48  23  24  1   
 49  24  25  1   
 50  25  48  1   
 51  25  49  1   
 52  25  50  1   
@<TRIPOS>SUBSTRUCTURE
  1 ****   9 GROUP 4 **** **** 0

# MOE 2024.06 (io_trps.svl 2023.06)
