@<TRIPOS>MOLECULE
6-(5-Methyl-2-oxo-imidazolidin-4-yl)-hexanoic acid (3-chloro-4-fluoro-phenyl)-am
44 45 1 0 0 
SMALL
USER_CHARGES


@<TRIPOS>ATOM
  1 CL       2.7420    -0.5330    -3.1180 Cl    1 <1>  -0.1770 
  2 C        3.0990    -1.2560    -1.5660 C.ar  1 <1>   0.1770 
  3 C        3.2940    -0.4720    -0.4420 C.ar  1 <1>   0.1900 
  4 C        3.1870    -2.6320    -1.4700 C.ar  1 <1>  -0.1500 
  5 F        3.2120     0.8320    -0.5280 F     1 <1>  -0.1900 
  6 C        3.5790    -1.0400     0.7850 C.ar  1 <1>  -0.1500 
  7 C        3.4700    -3.2320    -0.2460 C.ar  1 <1>   0.1170 
  8 C        3.6670    -2.4200     0.8730 C.ar  1 <1>  -0.1500 
  9 N        3.5620    -4.6320    -0.1930 N.am  1 <1>  -0.5470 
 10 C        3.4090    -5.4960     0.8570 C.2   1 <1>   0.5690 
 11 O        3.1080    -5.1510     1.9710 O.2   1 <1>  -0.5700 
 12 C        3.6250    -6.9760     0.5940 C.3   1 <1>  -0.0990 
 13 C        5.0240    -7.4650     1.0110 C.3   1 <1>  -0.1600 
 14 C        6.1530    -6.8060     0.2040 C.3   1 <1>  -0.1600 
 15 C        7.5210    -7.3510     0.6300 C.3   1 <1>  -0.1600 
 16 C        8.6530    -6.6760    -0.1620 C.3   1 <1>  -0.1600 
 17 C       10.0390    -7.2130     0.2310 C.3   1 <1>   0.2200 
 18 N       11.0890    -6.3530    -0.3380 N.am  1 <1>  -0.7300 
 19 C       10.4630    -8.6300    -0.2680 C.3   1 <1>   0.2200 
 20 C       12.1120    -7.0840    -0.7950 C.2   1 <1>   0.6900 
 21 N       11.8430    -8.3930    -0.7130 N.am  1 <1>  -0.7300 
 22 C        9.7060    -9.2080    -1.4690 C.3   1 <1>  -0.2400 
 23 O       13.1450    -6.6230    -1.2230 O.2   1 <1>  -0.5700 
 24 H        3.0310    -3.2280    -2.3500 H     1 <1>   0.1500 
 25 H        3.7270    -0.4170     1.6490 H     1 <1>   0.1500 
 26 H        3.8940    -2.8650     1.8260 H     1 <1>   0.1500 
 27 H        3.7430    -5.0830    -1.0870 H     1 <1>   0.3700 
 28 H        3.4560    -7.1920    -0.4450 H     1 <1>   0.0800 
 29 H        2.8880    -7.5180     1.1590 H     1 <1>   0.0800 
 30 H        5.0680    -8.5330     0.8800 H     1 <1>   0.0800 
 31 H        5.1640    -7.2580     2.0600 H     1 <1>   0.0800 
 32 H        6.1380    -5.7410     0.3630 H     1 <1>   0.0800 
 33 H        6.0040    -6.9940    -0.8450 H     1 <1>   0.0800 
 34 H        7.5410    -8.4150     0.4800 H     1 <1>   0.0800 
 35 H        7.6640    -7.1640     1.6810 H     1 <1>   0.0800 
 36 H        8.6270    -5.6220     0.0530 H     1 <1>   0.0800 
 37 H        8.4950    -6.7950    -1.2190 H     1 <1>   0.0800 
 38 H       10.1340    -7.1850     1.3030 H     1 <1>   0.0800 
 39 H       11.2490    -5.3940    -0.0360 H     1 <1>   0.3700 
 40 H       10.4500    -9.3290     0.5510 H     1 <1>   0.0800 
 41 H       12.3480    -9.0450    -1.3100 H     1 <1>   0.3700 
 42 H        9.7380    -8.5250    -2.3000 H     1 <1>   0.0800 
 43 H        8.6810    -9.3990    -1.2180 H     1 <1>   0.0800 
 44 H       10.1500   -10.1400    -1.7670 H     1 <1>   0.0800 
@<TRIPOS>BOND
  1   1   2  1   
  2   2   3  ar  
  3   2   4  ar  
  4   3   5  1   
  5   3   6  ar  
  6   4   7  ar  
  7   4  24  1   
  8   6   8  ar  
  9   6  25  1   
 10   7   8  ar  
 11   7   9  1   
 12   8  26  1   
 13   9  10  am  
 14   9  27  1   
 15  10  11  2   
 16  10  12  1   
 17  12  13  1   
 18  12  28  1   
 19  12  29  1   
 20  13  14  1   
 21  13  30  1   
 22  13  31  1   
 23  14  15  1   
 24  14  32  1   
 25  14  33  1   
 26  15  16  1   
 27  15  34  1   
 28  15  35  1   
 29  16  17  1   
 30  16  36  1   
 31  16  37  1   
 32  17  18  1   
 33  17  19  1   
 34  17  38  1   
 35  18  20  am  
 36  18  39  1   
 37  19  21  1   
 38  19  22  1   
 39  19  40  1   
 40  20  21  am  
 41  20  23  2   
 42  21  41  1   
 43  22  42  1   
 44  22  43  1   
 45  22  44  1   
@<TRIPOS>SUBSTRUCTURE
  1 ****  14 GROUP 4 **** **** 0

# MOE 2024.06 (io_trps.svl 2023.06)
