@<TRIPOS>MOLECULE
5-(2-Chloro-phenyl)-2-ethylsulfanyl-1-methyl-5,8-dihydro-1H,6H-pyrido[2,3-d]pyri
39 41 1 0 0 
SMALL
USER_CHARGES


@<TRIPOS>ATOM
  1 CL      -3.2260    -1.3670     2.3980 Cl    1 <1>  -0.1770 
  2 C       -2.9890     0.1050     1.4800 C.ar  1 <1>   0.1770 
  3 C       -2.7820     0.0760     0.1030 C.ar  1 <1>  -0.1440 
  4 C       -3.0060     1.2940     2.1850 C.ar  1 <1>  -0.1500 
  5 C       -2.5930     1.2880    -0.5510 C.ar  1 <1>  -0.1500 
  6 C       -2.7540    -1.2230    -0.7110 C.3   1 <1>   0.2020 
  7 C       -2.8140     2.4900     1.5170 C.ar  1 <1>  -0.1500 
  8 C       -2.6070     2.4830     0.1490 C.ar  1 <1>  -0.1500 
  9 C       -3.9940    -2.1040    -0.5040 C.2   1 <1>  -0.1240 
 10 C       -1.4170    -1.9400    -0.4230 C.3   1 <1>  -0.0990 
 11 C       -3.8720    -3.4450    -0.3150 C.2   1 <1>   0.2090 
 12 C       -5.2920    -1.5440    -0.5640 C.2   1 <1>   0.7670 
 13 C       -1.4740    -3.4330    -0.6340 C.2   1 <1>   0.5690 
 14 N       -4.9990    -4.1850    -0.0430 N.pl3 1 <1>  -0.5190 
 15 N       -2.6530    -4.0700    -0.4440 N.am  1 <1>  -0.5390 
 16 O       -5.4820    -0.3780    -0.8840 O.2   1 <1>  -0.5700 
 17 N       -6.3980    -2.2960    -0.3270 N.2   1 <1>  -0.6610 
 18 O       -0.4860    -4.0440    -0.9400 O.2   1 <1>  -0.5700 
 19 C       -6.2150    -3.5370    -0.0820 C.2   1 <1>   0.6410 
 20 C       -4.9330    -5.6190     0.3780 C.3   1 <1>   0.1290 
 21 S       -7.6700    -4.5340     0.2170 S.3   1 <1>  -0.3710 
 22 C       -9.1010    -3.3610     0.1740 C.3   1 <1>   0.0700 
 23 C       -9.2240    -2.7060     1.5490 C.3   1 <1>  -0.2400 
 24 H       -3.1710     1.2810     3.2470 H     1 <1>   0.1500 
 25 H       -2.4390     1.3150    -1.6160 H     1 <1>   0.1500 
 26 H       -2.7560    -0.9680    -1.7570 H     1 <1>   0.0800 
 27 H       -2.8280     3.4210     2.0580 H     1 <1>   0.1500 
 28 H       -2.4620     3.4120    -0.3750 H     1 <1>   0.1500 
 29 H       -1.1250    -1.7870     0.5990 H     1 <1>   0.0800 
 30 H       -0.6440    -1.5230    -1.0420 H     1 <1>   0.0800 
 31 H       -2.6070    -5.0820    -0.5380 H     1 <1>   0.3700 
 32 H       -3.9260    -5.9240     0.5950 H     1 <1>   0.0800 
 33 H       -5.3310    -6.2440    -0.4020 H     1 <1>   0.0800 
 34 H       -5.5100    -5.7640     1.2750 H     1 <1>   0.0800 
 35 H       -9.9760    -3.9410    -0.0610 H     1 <1>   0.0800 
 36 H       -8.9230    -2.6400    -0.6050 H     1 <1>   0.0800 
 37 H       -9.3710    -3.4550     2.3060 H     1 <1>   0.0800 
 38 H      -10.0620    -2.0330     1.5580 H     1 <1>   0.0800 
 39 H       -8.3340    -2.1450     1.7740 H     1 <1>   0.0800 
@<TRIPOS>BOND
  1   1   2  1   
  2   2   3  ar  
  3   2   4  ar  
  4   3   5  ar  
  5   3   6  1   
  6   4   7  ar  
  7   4  24  1   
  8   5   8  ar  
  9   5  25  1   
 10   6   9  1   
 11   6  10  1   
 12   6  26  1   
 13   7   8  ar  
 14   7  27  1   
 15   8  28  1   
 16   9  11  2   
 17   9  12  1   
 18  10  13  1   
 19  10  29  1   
 20  10  30  1   
 21  11  14  1   
 22  11  15  1   
 23  12  16  2   
 24  12  17  1   
 25  13  15  am  
 26  13  18  2   
 27  14  19  1   
 28  14  20  1   
 29  15  31  1   
 30  17  19  2   
 31  19  21  1   
 32  20  32  1   
 33  20  33  1   
 34  20  34  1   
 35  21  22  1   
 36  22  23  1   
 37  22  35  1   
 38  22  36  1   
 39  23  37  1   
 40  23  38  1   
 41  23  39  1   
@<TRIPOS>SUBSTRUCTURE
  1 ****   9 GROUP 4 **** **** 0

# MOE 2024.06 (io_trps.svl 2023.06)
