@<TRIPOS>MOLECULE
4-(2,4-Dimethoxy-phenyl)-2,7-dimethyl-5-oxo-1,4,5,6,7,8-hexahydro-quinoline-3-ca
62 65 1 0 0 
SMALL
USER_CHARGES


@<TRIPOS>ATOM
  1 O        0.2270    -0.6420    -1.8540 O.2   1 <1>  -0.5700 
  2 C        0.3450    -1.3650    -0.8940 C.2   1 <1>   0.4950 
  3 C        1.5800    -1.9050    -0.4300 C.2   1 <1>  -0.1240 
  4 C       -0.9390    -1.7720    -0.1880 C.3   1 <1>  -0.0990 
  5 C        1.6510    -2.8480     0.5450 C.2   1 <1>  -0.0380 
  6 C        2.8630    -1.4070    -1.1100 C.3   1 <1>   0.3400 
  7 C       -0.6940    -2.2580     1.2520 C.3   1 <1>  -0.0800 
  8 N        2.8360    -3.4440     0.8990 N.pl3 1 <1>  -0.6000 
  9 C        0.4130    -3.3260     1.2870 C.3   1 <1>  -0.0220 
 10 C        4.1070    -2.1930    -0.6890 C.2   1 <1>  -0.1240 
 11 C        3.0830     0.0990    -0.8660 C.ar  1 <1>  -0.1440 
 12 C       -1.9910    -2.7850     1.8800 C.3   1 <1>  -0.2400 
 13 C        4.0280    -3.1480     0.2750 C.2   1 <1>  -0.0380 
 14 C        5.2860    -1.7650    -1.3640 C.2   1 <1>   0.6160 
 15 C        3.5780     0.6140     0.3340 C.ar  1 <1>   0.0830 
 16 C        2.7920     0.9920    -1.8890 C.ar  1 <1>  -0.1500 
 17 C        5.2060    -3.9730     0.7660 C.3   1 <1>  -0.1020 
 18 O        5.3990    -1.9010    -2.5670 O.2   1 <1>  -0.5700 
 19 N        6.2680    -1.1720    -0.6210 N.am  1 <1>  -0.5470 
 20 O        3.8950    -0.2010     1.3610 O.3   1 <1>  -0.3630 
 21 C        3.7920     1.9750     0.4940 C.ar  1 <1>  -0.1500 
 22 C        2.9920     2.3510    -1.7280 C.ar  1 <1>  -0.1500 
 23 C        7.5310    -0.7010    -0.8940 C.ar  1 <1>   0.4270 
 24 C        3.0100    -0.1990     2.4550 C.3   1 <1>   0.0400 
 25 C        3.4970     2.8530    -0.5410 C.ar  1 <1>   0.0830 
 26 N        8.1040    -0.1340     0.1580 N.ar  1 <1>  -0.6200 
 27 C        8.1580    -0.8090    -2.1340 C.ar  1 <1>  -0.1500 
 28 O        3.6780     4.1950    -0.4680 O.3   1 <1>  -0.3630 
 29 C        9.3240     0.3420    -0.0300 C.ar  1 <1>   0.1600 
 30 C        9.4270    -0.3100    -2.3130 C.ar  1 <1>  -0.1500 
 31 C        4.3410     4.7790     0.6320 C.3   1 <1>   0.0400 
 32 C       10.0280     0.2850    -1.2230 C.ar  1 <1>  -0.1430 
 33 C       11.4280     0.8600    -1.3500 C.3   1 <1>  -0.0970 
 34 H       -1.3990    -2.5520    -0.7670 H     1 <1>   0.0800 
 35 H       -1.6070    -0.9300    -0.1760 H     1 <1>   0.0800 
 36 H        2.7410    -1.5690    -2.1670 H     1 <1>   0.0800 
 37 H       -0.3570    -1.4140     1.8320 H     1 <1>   0.0800 
 38 H        2.8370    -4.1680     1.6270 H     1 <1>   0.4000 
 39 H        0.6630    -3.5310     2.3130 H     1 <1>   0.0800 
 40 H        0.0680    -4.2390     0.8350 H     1 <1>   0.0800 
 41 H       -2.3660    -3.6310     1.3300 H     1 <1>   0.0800 
 42 H       -2.7450    -2.0170     1.8800 H     1 <1>   0.0800 
 43 H       -1.8190    -3.0870     2.8980 H     1 <1>   0.0800 
 44 H        2.3990     0.6330    -2.8260 H     1 <1>   0.1500 
 45 H        4.9750    -5.0200     0.6900 H     1 <1>   0.0800 
 46 H        5.4160    -3.7340     1.7930 H     1 <1>   0.0800 
 47 H        6.0920    -3.7900     0.1870 H     1 <1>   0.0800 
 48 H        5.9720    -0.9230     0.3230 H     1 <1>   0.3700 
 49 H        4.1930     2.3210     1.4240 H     1 <1>   0.1500 
 50 H        2.7590     3.0310    -2.5270 H     1 <1>   0.1500 
 51 H        3.3110    -0.9780     3.1310 H     1 <1>   0.0800 
 52 H        2.0140    -0.3890     2.0960 H     1 <1>   0.0800 
 53 H        3.0580     0.7570     2.9450 H     1 <1>   0.0800 
 54 H        7.6560    -1.2810    -2.9560 H     1 <1>   0.1500 
 55 H        9.7900     0.8060     0.8210 H     1 <1>   0.1500 
 56 H        9.9250    -0.3840    -3.2640 H     1 <1>   0.1500 
 57 H        4.4300     5.8340     0.4460 H     1 <1>   0.0800 
 58 H        5.3180     4.3390     0.7230 H     1 <1>   0.0800 
 59 H        3.7570     4.6120     1.5190 H     1 <1>   0.0800 
 60 H       12.1170     0.0850    -1.6360 H     1 <1>   0.0800 
 61 H       11.7570     1.2840    -0.4190 H     1 <1>   0.0800 
 62 H       11.4400     1.6300    -2.1010 H     1 <1>   0.0800 
@<TRIPOS>BOND
  1   1   2  2   
  2   2   3  1   
  3   2   4  1   
  4   3   5  2   
  5   3   6  1   
  6   4   7  1   
  7   4  34  1   
  8   4  35  1   
  9   5   8  1   
 10   5   9  1   
 11   6  10  1   
 12   6  11  1   
 13   6  36  1   
 14   7   9  1   
 15   7  12  1   
 16   7  37  1   
 17   8  13  1   
 18   8  38  1   
 19   9  39  1   
 20   9  40  1   
 21  10  13  2   
 22  10  14  1   
 23  11  15  ar  
 24  11  16  ar  
 25  12  41  1   
 26  12  42  1   
 27  12  43  1   
 28  13  17  1   
 29  14  18  2   
 30  14  19  am  
 31  15  20  1   
 32  15  21  ar  
 33  16  22  ar  
 34  16  44  1   
 35  17  45  1   
 36  17  46  1   
 37  17  47  1   
 38  19  23  1   
 39  19  48  1   
 40  20  24  1   
 41  21  25  ar  
 42  21  49  1   
 43  22  25  ar  
 44  22  50  1   
 45  23  26  ar  
 46  23  27  ar  
 47  24  51  1   
 48  24  52  1   
 49  24  53  1   
 50  25  28  1   
 51  26  29  ar  
 52  27  30  ar  
 53  27  54  1   
 54  28  31  1   
 55  29  32  ar  
 56  29  55  1   
 57  30  32  ar  
 58  30  56  1   
 59  31  57  1   
 60  31  58  1   
 61  31  59  1   
 62  32  33  1   
 63  33  60  1   
 64  33  61  1   
 65  33  62  1   
@<TRIPOS>SUBSTRUCTURE
  1 ****  11 GROUP 4 **** **** 0

# MOE 2024.06 (io_trps.svl 2023.06)
