@<TRIPOS>MOLECULE
1-Methyl-2-methylsulfanyl-5-o-tolyl-5,8-dihydro-1H,6H-pyrido[2,3-d]pyrimidine-4,
39 41 1 0 0 
SMALL
USER_CHARGES


@<TRIPOS>ATOM
  1 S        0.2540     1.4250    -0.4460 S.3   1 <1>  -0.3710 
  2 C        1.9200     2.0140    -0.1780 C.2   1 <1>   0.6410 
  3 C       -0.7000     2.0280     1.0210 C.3   1 <1>  -0.0100 
  4 N        2.1290     2.6780     0.8950 N.2   1 <1>  -0.6610 
  5 N        2.8550     1.7090    -1.1460 N.pl3 1 <1>  -0.5190 
  6 C        3.3920     3.1420     1.0920 C.2   1 <1>   0.7670 
  7 C        4.1250     2.2150    -0.9870 C.2   1 <1>   0.2090 
  8 C        2.4710     0.8370    -2.2990 C.3   1 <1>   0.1290 
  9 O        3.6180     3.7060     2.1570 O.2   1 <1>  -0.5700 
 10 C        4.4010     2.9460     0.1260 C.2   1 <1>  -0.1240 
 11 N        5.0950     1.9930    -1.9400 N.am  1 <1>  -0.5390 
 12 C        5.7800     3.5700     0.3350 C.3   1 <1>   0.2020 
 13 C        6.4040     2.3150    -1.7940 C.2   1 <1>   0.5690 
 14 C        5.7600     5.0640    -0.0270 C.ar  1 <1>  -0.1440 
 15 C        6.8800     2.8320    -0.4530 C.3   1 <1>  -0.0990 
 16 O        7.1770     2.1640    -2.7020 O.2   1 <1>  -0.5700 
 17 C        6.1240     6.0600     0.8830 C.ar  1 <1>  -0.1430 
 18 C        5.3680     5.4440    -1.3070 C.ar  1 <1>  -0.1500 
 19 C        6.0940     7.3910     0.4940 C.ar  1 <1>  -0.1500 
 20 C        6.5540     5.7550     2.3130 C.3   1 <1>  -0.0970 
 21 C        5.3420     6.7730    -1.6850 C.ar  1 <1>  -0.1500 
 22 C        5.7070     7.7500    -0.7820 C.ar  1 <1>  -0.1500 
 23 H       -1.7170     1.7000     0.9130 H     1 <1>   0.0800 
 24 H       -0.6390     3.1020     1.0360 H     1 <1>   0.0800 
 25 H       -0.2490     1.6100     1.9030 H     1 <1>   0.0800 
 26 H        1.9870    -0.0540    -1.9390 H     1 <1>   0.0800 
 27 H        3.3250     0.5310    -2.8730 H     1 <1>   0.0800 
 28 H        1.7920     1.3690    -2.9430 H     1 <1>   0.0800 
 29 H        4.8510     1.6080    -2.8490 H     1 <1>   0.3700 
 30 H        6.0300     3.4490     1.3720 H     1 <1>   0.0800 
 31 H        7.2080     1.9830     0.1150 H     1 <1>   0.0800 
 32 H        7.7270     3.4790    -0.5970 H     1 <1>   0.0800 
 33 H        5.0750     4.7110    -2.0350 H     1 <1>   0.1500 
 34 H        6.3710     8.1660     1.1870 H     1 <1>   0.1500 
 35 H        5.7480     5.2810     2.8460 H     1 <1>   0.0800 
 36 H        6.8120     6.6550     2.8410 H     1 <1>   0.0800 
 37 H        7.4120     5.1100     2.3160 H     1 <1>   0.0800 
 38 H        5.0370     7.0450    -2.6800 H     1 <1>   0.1500 
 39 H        5.6880     8.7870    -1.0700 H     1 <1>   0.1500 
@<TRIPOS>BOND
  1   1   2  1   
  2   1   3  1   
  3   2   4  2   
  4   2   5  1   
  5   3  23  1   
  6   3  24  1   
  7   3  25  1   
  8   4   6  1   
  9   5   7  1   
 10   5   8  1   
 11   6   9  2   
 12   6  10  1   
 13   7  10  2   
 14   7  11  1   
 15   8  26  1   
 16   8  27  1   
 17   8  28  1   
 18  10  12  1   
 19  11  13  am  
 20  11  29  1   
 21  12  14  1   
 22  12  15  1   
 23  12  30  1   
 24  13  15  1   
 25  13  16  2   
 26  14  17  ar  
 27  14  18  ar  
 28  15  31  1   
 29  15  32  1   
 30  17  19  ar  
 31  17  20  1   
 32  18  21  ar  
 33  18  33  1   
 34  19  22  ar  
 35  19  34  1   
 36  20  35  1   
 37  20  36  1   
 38  20  37  1   
 39  21  22  ar  
 40  21  38  1   
 41  22  39  1   
@<TRIPOS>SUBSTRUCTURE
  1 ****  10 GROUP 4 **** **** 0

# MOE 2024.06 (io_trps.svl 2023.06)
