@<TRIPOS>MOLECULE
1-(4-Chloro-phenyl)-4-(morpholine-4-carbonyl)-pyrrolidin-2-one
38 40 1 0 0 
SMALL
USER_CHARGES


@<TRIPOS>ATOM
  1 CL      -0.4210     1.0370    -0.3740 Cl    1 <1>  -0.1770 
  2 C        1.1480     1.7750    -0.1690 C.ar  1 <1>   0.1770 
  3 C        2.2810     0.9840    -0.2000 C.ar  1 <1>  -0.1500 
  4 C        1.2370     3.1400     0.0210 C.ar  1 <1>  -0.1500 
  5 C        3.5220     1.5760    -0.0400 C.ar  1 <1>  -0.1500 
  6 C        2.4820     3.7220     0.1810 C.ar  1 <1>  -0.1500 
  7 C        3.6440     2.9510     0.1500 C.ar  1 <1>   0.1170 
  8 N        4.9100     3.5520     0.2980 N.am  1 <1>  -0.4770 
  9 C        6.0200     3.0550     0.9200 C.2   1 <1>   0.5690 
 10 C        5.1970     4.8890    -0.2650 C.3   1 <1>   0.1400 
 11 O        6.1270     1.9910     1.4770 O.2   1 <1>  -0.5700 
 12 C        7.1760     4.0100     0.8240 C.3   1 <1>  -0.0990 
 13 C        6.7310     4.9780    -0.2800 C.3   1 <1>  -0.0190 
 14 C        7.2800     6.3910    -0.1020 C.2   1 <1>   0.5690 
 15 O        6.5550     7.2170     0.3990 O.2   1 <1>  -0.5700 
 16 N        8.5580     6.7080    -0.4930 N.am  1 <1>  -0.6600 
 17 C        9.0920     8.0980    -0.3360 C.3   1 <1>   0.1400 
 18 C        9.5760     5.7710    -1.0600 C.3   1 <1>   0.1400 
 19 C       10.4470     8.0820     0.3890 C.3   1 <1>   0.1200 
 20 C       10.9030     5.8820    -0.2900 C.3   1 <1>   0.1200 
 21 O       11.3380     7.2100    -0.2490 O.3   1 <1>  -0.5600 
 22 H        2.1910    -0.0770    -0.3450 H     1 <1>   0.1500 
 23 H        0.3410     3.7340     0.0450 H     1 <1>   0.1500 
 24 H        4.4050     0.9620    -0.0620 H     1 <1>   0.1500 
 25 H        2.5460     4.7830     0.3400 H     1 <1>   0.1500 
 26 H        4.7610     5.6310     0.3810 H     1 <1>   0.0800 
 27 H        4.7880     4.9860    -1.2570 H     1 <1>   0.0800 
 28 H        8.0830     3.4900     0.5770 H     1 <1>   0.0800 
 29 H        7.2830     4.5150     1.7670 H     1 <1>   0.0800 
 30 H        7.0470     4.5990    -1.2340 H     1 <1>   0.0800 
 31 H        8.4060     8.7130     0.2190 H     1 <1>   0.0800 
 32 H        9.2170     8.5410    -1.3080 H     1 <1>   0.0800 
 33 H        9.7510     6.0240    -2.0920 H     1 <1>   0.0800 
 34 H        9.2400     4.7530    -1.0230 H     1 <1>   0.0800 
 35 H       10.3260     7.7670     1.4110 H     1 <1>   0.0800 
 36 H       10.8850     9.0640     0.3790 H     1 <1>   0.0800 
 37 H       11.6670     5.3030    -0.7780 H     1 <1>   0.0800 
 38 H       10.7900     5.5250     0.7190 H     1 <1>   0.0800 
@<TRIPOS>BOND
  1   1   2  1   
  2   2   3  ar  
  3   2   4  ar  
  4   3   5  ar  
  5   3  22  1   
  6   4   6  ar  
  7   4  23  1   
  8   5   7  ar  
  9   5  24  1   
 10   6   7  ar  
 11   6  25  1   
 12   7   8  1   
 13   8   9  am  
 14   8  10  1   
 15   9  11  2   
 16   9  12  1   
 17  10  13  1   
 18  10  26  1   
 19  10  27  1   
 20  12  13  1   
 21  12  28  1   
 22  12  29  1   
 23  13  14  1   
 24  13  30  1   
 25  14  15  2   
 26  14  16  am  
 27  16  17  1   
 28  16  18  1   
 29  17  19  1   
 30  17  31  1   
 31  17  32  1   
 32  18  20  1   
 33  18  33  1   
 34  18  34  1   
 35  19  21  1   
 36  19  35  1   
 37  19  36  1   
 38  20  21  1   
 39  20  37  1   
 40  20  38  1   
@<TRIPOS>SUBSTRUCTURE
  1 ****  10 GROUP 4 **** **** 0

# MOE 2024.06 (io_trps.svl 2023.06)
