@<TRIPOS>MOLECULE
2-(1H-Indol-3-yl)-5,7-dipropyl-1,3-diaza-tricyclo[3.3.1.1*3,7*]decan-6-ol
58 62 1 0 0 
SMALL
USER_CHARGES


@<TRIPOS>ATOM
  1 O        0.0750    -0.9070     0.5370 O.3   1 <1>  -0.6800 
  2 C        1.2250    -1.3250     1.1840 C.3   1 <1>   0.2000 
  3 C        2.4640    -0.5940     0.5380 C.3   1 <1>   0.0000 
  4 C        1.3550    -2.8960     1.0860 C.3   1 <1>   0.0000 
  5 C        3.7280    -1.0850     1.3020 C.3   1 <1>   0.3430 
  6 C        2.5870    -1.1070    -0.9470 C.3   1 <1>   0.1100 
  7 C        2.3040     0.9480     0.6220 C.3   1 <1>  -0.1600 
  8 C        2.6760    -3.2740     1.8310 C.3   1 <1>   0.3430 
  9 C        1.5460    -3.2500    -0.4350 C.3   1 <1>   0.1100 
 10 C        0.1830    -3.6610     1.7610 C.3   1 <1>  -0.1600 
 11 N        3.6750    -2.5290     1.0740 N.4   1 <1>  -0.9590 
 12 N        2.7880    -2.5990    -0.9760 N.3   1 <1>  -0.8100 
 13 C        3.5820     1.8120     0.5820 C.3   1 <1>  -0.1600 
 14 C       -1.1040    -3.8150     0.9310 C.3   1 <1>  -0.1600 
 15 C        4.0380    -2.9660    -0.2520 C.3   1 <1>   0.8740 
 16 C        4.4030     1.6970    -0.7060 C.3   1 <1>  -0.2400 
 17 C       -2.1710    -4.5760     1.7220 C.3   1 <1>  -0.2400 
 18 C        4.5820    -4.3920    -0.3870 C.2   1 <1>  -0.1810 
 19 C        4.0960    -5.7060    -0.0850 C.ar  1 <1>   0.0000 
 20 C        5.8320    -4.5490    -0.9000 C.2   1 <1>  -0.3020 
 21 C        5.1270    -6.5800    -0.4430 C.ar  1 <1>  -0.1520 
 22 C        2.9320    -6.3010     0.4410 C.ar  1 <1>  -0.1500 
 23 N        6.1720    -5.8630    -0.9410 N.pl3 1 <1>   0.0330 
 24 C        5.0380    -7.9650    -0.2890 C.ar  1 <1>  -0.1500 
 25 C        2.8350    -7.6640     0.5950 C.ar  1 <1>  -0.1500 
 26 C        3.8900    -8.5030     0.2320 C.ar  1 <1>  -0.1500 
 27 H       -0.1550     0.0200     0.7560 H     1 <1>   0.4000 
 28 H        1.1230    -1.0400     2.2190 H     1 <1>   0.0800 
 29 H        3.6690    -0.8530     2.3540 H     1 <1>   0.0800 
 30 H        4.6280    -0.6620     0.8870 H     1 <1>   0.0800 
 31 H        3.4080    -0.6380    -1.4570 H     1 <1>   0.0800 
 32 H        1.6940    -0.8560    -1.5000 H     1 <1>   0.0800 
 33 H        1.8100     1.1890     1.5480 H     1 <1>   0.0800 
 34 H        1.6460     1.2770    -0.1660 H     1 <1>   0.0800 
 35 H        2.6510    -2.9500     2.8590 H     1 <1>   0.0800 
 36 H        2.8850    -4.3280     1.8020 H     1 <1>   0.0800 
 37 H        0.6960    -2.8980    -0.9990 H     1 <1>   0.0800 
 38 H        1.5960    -4.3070    -0.6100 H     1 <1>   0.0800 
 39 H       -0.0650    -3.1700     2.6880 H     1 <1>   0.0800 
 40 H        0.5100    -4.6540     2.0170 H     1 <1>   0.0800 
 41 H        2.8710    -2.2900     0.5370 H     1 <1>   0.4500 
 42 H        4.2120     1.6050     1.4310 H     1 <1>   0.0800 
 43 H        3.2770     2.8410     0.6780 H     1 <1>   0.0800 
 44 H       -0.9060    -4.3580     0.0230 H     1 <1>   0.0800 
 45 H       -1.5040    -2.8530     0.6620 H     1 <1>   0.0800 
 46 H        4.8220    -2.3220    -0.6180 H     1 <1>   0.0800 
 47 H        4.9240     0.7600    -0.7660 H     1 <1>   0.0800 
 48 H        5.1440     2.4790    -0.7280 H     1 <1>   0.0800 
 49 H        3.7740     1.8160    -1.5710 H     1 <1>   0.0800 
 50 H       -1.8250    -5.5610     1.9820 H     1 <1>   0.0800 
 51 H       -3.0640    -4.6760     1.1300 H     1 <1>   0.0800 
 52 H       -2.4230    -4.0460     2.6250 H     1 <1>   0.0800 
 53 H        6.5220    -3.7980    -1.2480 H     1 <1>   0.1500 
 54 H        2.0890    -5.7230     0.7340 H     1 <1>   0.1500 
 55 H        7.0510    -6.2650    -1.2870 H     1 <1>   0.2700 
 56 H        5.8610    -8.5960    -0.5770 H     1 <1>   0.1500 
 57 H        1.9400    -8.1080     0.9970 H     1 <1>   0.1500 
 58 H        3.7910    -9.5670     0.3610 H     1 <1>   0.1500 
@<TRIPOS>BOND
  1   1   2  1   
  2   1  27  1   
  3   2   3  1   
  4   2   4  1   
  5   2  28  1   
  6   3   5  1   
  7   3   6  1   
  8   3   7  1   
  9   4   8  1   
 10   4   9  1   
 11   4  10  1   
 12   5  11  1   
 13   5  29  1   
 14   5  30  1   
 15   6  12  1   
 16   6  31  1   
 17   6  32  1   
 18   7  13  1   
 19   7  33  1   
 20   7  34  1   
 21   8  11  1   
 22   8  35  1   
 23   8  36  1   
 24   9  12  1   
 25   9  37  1   
 26   9  38  1   
 27  10  14  1   
 28  10  39  1   
 29  10  40  1   
 30  11  15  1   
 31  11  41  1   
 32  12  15  1   
 33  13  16  1   
 34  13  42  1   
 35  13  43  1   
 36  14  17  1   
 37  14  44  1   
 38  14  45  1   
 39  15  18  1   
 40  15  46  1   
 41  16  47  1   
 42  16  48  1   
 43  16  49  1   
 44  17  50  1   
 45  17  51  1   
 46  17  52  1   
 47  18  19  1   
 48  18  20  2   
 49  19  21  ar  
 50  19  22  ar  
 51  20  23  1   
 52  20  53  1   
 53  21  23  1   
 54  21  24  ar  
 55  22  25  ar  
 56  22  54  1   
 57  23  55  1   
 58  24  26  ar  
 59  24  56  1   
 60  25  26  ar  
 61  25  57  1   
 62  26  58  1   
@<TRIPOS>SUBSTRUCTURE
  1 ****  15 GROUP 4 **** **** 0

# MOE 2024.06 (io_trps.svl 2023.06)
