@<TRIPOS>MOLECULE
6-Hydroxy-1-methyl-3-(2-piperidin-1-yl-ethyl)-8-m-tolyl-5,6,7,8-tetrahydro-1H-1,
64 68 1 0 0 
SMALL
USER_CHARGES


@<TRIPOS>ATOM
  1 O        0.2120     0.0920    -1.1780 O.2   1 <1>  -0.5740 
  2 C        1.3100     0.5280    -0.9010 C.2   1 <1>   0.6870 
  3 N        1.4600     1.8970    -0.7220 N.am  1 <1>  -0.4240 
  4 N        2.3920    -0.3230    -0.7270 N.am  1 <1>  -0.4400 
  5 C        2.6440     2.4280    -0.2300 C.2   1 <1>   0.7000 
  6 C        0.3230     2.7990    -1.0960 C.3   1 <1>   0.1340 
  7 C        3.5850     0.2240    -0.2880 C.2   1 <1>   0.4220 
  8 C        2.2650    -1.7920    -0.9720 C.3   1 <1>   0.0540 
  9 O        2.7090     3.6130     0.0470 O.2   1 <1>  -0.5740 
 10 C        3.7520     1.5420    -0.0350 C.2   1 <1>   0.2720 
 11 C       -0.7870     2.7390    -0.0320 C.3   1 <1>   0.3380 
 12 N        4.7550    -0.4200    -0.0240 N.pl3 1 <1>  -0.7030 
 13 N        5.0790     1.6910     0.3960 N.pl3 1 <1>  -0.7670 
 14 N       -1.9990     3.5270    -0.4130 N.4   1 <1>  -0.9610 
 15 C        5.6380     0.4860     0.3880 C.cat 1 <1>   1.0690 
 16 C        5.7770     2.9470     0.7900 C.3   1 <1>   0.3490 
 17 C       -1.7520     5.0010    -0.4320 C.3   1 <1>   0.3380 
 18 C       -3.1280     3.1860     0.5000 C.3   1 <1>   0.3380 
 19 N        6.9130     0.2600     0.7550 N.pl3 1 <1>  -0.5790 
 20 C        7.3070     2.7470     0.7360 C.3   1 <1>   0.1950 
 21 C       -2.9990     5.7240    -0.9410 C.3   1 <1>  -0.1660 
 22 C       -4.4080     3.8660     0.0130 C.3   1 <1>  -0.1660 
 23 C        7.4960    -1.0090     0.6880 C.ar  1 <1>   0.3060 
 24 C        7.7500     1.3790     1.2930 C.3   1 <1>   0.1620 
 25 O        7.9490     3.7630     1.4330 O.3   1 <1>  -0.6830 
 26 C       -4.2350     5.3850    -0.0980 C.3   1 <1>  -0.1660 
 27 C        7.8190    -1.5640    -0.5430 C.ar  1 <1>  -0.1560 
 28 C        7.7270    -1.7400     1.8450 C.ar  1 <1>  -0.1560 
 29 C        8.3480    -2.8400    -0.6260 C.ar  1 <1>  -0.1490 
 30 C        8.2590    -3.0140     1.7700 C.ar  1 <1>  -0.1560 
 31 C        8.5650    -3.5620     0.5360 C.ar  1 <1>  -0.1560 
 32 C        8.7030    -3.4500    -1.9710 C.3   1 <1>  -0.1030 
 33 H       -0.0740     2.4750    -2.0430 H     1 <1>   0.0740 
 34 H        0.6740     3.8090    -1.2100 H     1 <1>   0.0740 
 35 H        1.3820    -2.0080    -1.5510 H     1 <1>   0.0740 
 36 H        2.1930    -2.3130    -0.0330 H     1 <1>   0.0740 
 37 H        3.1170    -2.1540    -1.5190 H     1 <1>   0.0740 
 38 H       -0.4030     3.1070     0.9050 H     1 <1>   0.0740 
 39 H       -1.0730     1.7080     0.0980 H     1 <1>   0.0740 
 40 H        4.9560    -1.4160    -0.1020 H     1 <1>   0.4460 
 41 H       -2.3050     3.2500    -1.3560 H     1 <1>   0.4460 
 42 H        5.4760     3.2100     1.7900 H     1 <1>   0.0740 
 43 H        5.4970     3.7460     0.1220 H     1 <1>   0.0740 
 44 H       -0.9200     5.2340    -1.0770 H     1 <1>   0.0740 
 45 H       -1.5190     5.3440     0.5630 H     1 <1>   0.0740 
 46 H       -2.9010     3.5180     1.5000 H     1 <1>   0.0740 
 47 H       -3.2760     2.1180     0.5210 H     1 <1>   0.0740 
 48 H        7.6310     2.8300    -0.2880 H     1 <1>   0.0740 
 49 H       -3.1720     5.4600    -1.9700 H     1 <1>   0.0740 
 50 H       -2.8280     6.7860    -0.9070 H     1 <1>   0.0740 
 51 H       -5.2050     3.6490     0.7030 H     1 <1>   0.0740 
 52 H       -4.6900     3.4570    -0.9420 H     1 <1>   0.0740 
 53 H        8.7810     1.2110     1.0290 H     1 <1>   0.0740 
 54 H        7.6670     1.3780     2.3670 H     1 <1>   0.0740 
 55 H        7.8180     3.7200     2.4030 H     1 <1>   0.3960 
 56 H       -5.1130     5.8230    -0.5420 H     1 <1>   0.0740 
 57 H       -4.1220     5.8060     0.8880 H     1 <1>   0.0740 
 58 H        7.6650    -0.9960    -1.4430 H     1 <1>   0.1440 
 59 H        7.4910    -1.3220     2.8070 H     1 <1>   0.1440 
 60 H        8.4410    -3.5840     2.6670 H     1 <1>   0.1440 
 61 H        8.9810    -4.5550     0.4850 H     1 <1>   0.1440 
 62 H        8.1710    -2.9630    -2.7690 H     1 <1>   0.0740 
 63 H        8.4520    -4.4960    -1.9860 H     1 <1>   0.0740 
 64 H        9.7590    -3.3480    -2.1490 H     1 <1>   0.0740 
@<TRIPOS>BOND
  1   1   2  2   
  2   2   3  am  
  3   2   4  am  
  4   3   5  am  
  5   3   6  1   
  6   4   7  1   
  7   4   8  1   
  8   5   9  2   
  9   5  10  1   
 10   6  11  1   
 11   6  33  1   
 12   6  34  1   
 13   7  10  2   
 14   7  12  1   
 15   8  35  1   
 16   8  36  1   
 17   8  37  1   
 18  10  13  1   
 19  11  14  1   
 20  11  38  1   
 21  11  39  1   
 22  12  15  ar  
 23  12  40  1   
 24  13  15  ar  
 25  13  16  1   
 26  14  17  1   
 27  14  18  1   
 28  14  41  1   
 29  15  19  ar  
 30  16  20  1   
 31  16  42  1   
 32  16  43  1   
 33  17  21  1   
 34  17  44  1   
 35  17  45  1   
 36  18  22  1   
 37  18  46  1   
 38  18  47  1   
 39  19  23  1   
 40  19  24  1   
 41  20  24  1   
 42  20  25  1   
 43  20  48  1   
 44  21  26  1   
 45  21  49  1   
 46  21  50  1   
 47  22  26  1   
 48  22  51  1   
 49  22  52  1   
 50  23  27  ar  
 51  23  28  ar  
 52  24  53  1   
 53  24  54  1   
 54  25  55  1   
 55  26  56  1   
 56  26  57  1   
 57  27  29  ar  
 58  27  58  1   
 59  28  30  ar  
 60  28  59  1   
 61  29  31  ar  
 62  29  32  1   
 63  30  31  ar  
 64  30  60  1   
 65  31  61  1   
 66  32  62  1   
 67  32  63  1   
 68  32  64  1   
@<TRIPOS>SUBSTRUCTURE
  1 ****  10 GROUP 4 **** **** 0

# MOE 2024.06 (io_trps.svl 2023.06)
