@<TRIPOS>MOLECULE
2-(4-Fluoro-benzylsulfanyl)-4,6-di-morpholin-4-yl-[1,3,5]triazine
49 52 1 0 0 
SMALL
USER_CHARGES


@<TRIPOS>ATOM
  1 S        0.0360     0.3020    -0.0100 S.3   1 <1>  -0.3320 
  2 C        1.5080    -0.6800     0.2070 C.ar  1 <1>   0.7220 
  3 C       -1.3420    -0.9130     0.1500 C.3   1 <1>   0.2140 
  4 N        2.6180    -0.0150     0.1730 N.ar  1 <1>  -0.6200 
  5 N        1.3300    -1.9550     0.3740 N.ar  1 <1>  -0.6200 
  6 C       -2.6570    -0.1670    -0.0150 C.ar  1 <1>  -0.1440 
  7 C        3.6760    -0.7710     0.3400 C.ar  1 <1>   0.7200 
  8 C        2.4570    -2.6070     0.5340 C.ar  1 <1>   0.7200 
  9 C       -3.2190    -0.0170    -1.2770 C.ar  1 <1>  -0.1500 
 10 C       -3.2990     0.3650     1.0970 C.ar  1 <1>  -0.1500 
 11 N        3.6480    -2.0670     0.5260 N.ar  1 <1>  -0.6200 
 12 N        4.9060    -0.1530     0.3180 N.pl3 1 <1>  -0.8380 
 13 N        2.3730    -3.9660     0.7250 N.pl3 1 <1>  -0.8380 
 14 C       -4.4200     0.6550    -1.4330 C.ar  1 <1>  -0.1500 
 15 C       -4.5010     1.0390     0.9550 C.ar  1 <1>  -0.1500 
 16 C        6.2020    -0.8860     0.4730 C.3   1 <1>   0.2090 
 17 C        5.0850     1.3330     0.2360 C.3   1 <1>   0.2090 
 18 C        3.5130    -4.8080     1.2060 C.3   1 <1>   0.2090 
 19 C        1.1800    -4.7830     0.3390 C.3   1 <1>   0.2090 
 20 C       -5.0390     1.1700    -0.3110 C.ar  1 <1>   0.1900 
 21 C        7.2410    -0.3850    -0.5460 C.3   1 <1>   0.1200 
 22 C        6.1930     1.6980    -0.7670 C.3   1 <1>   0.1200 
 23 C        3.7950    -5.9510     0.2150 C.3   1 <1>   0.1200 
 24 C        1.5930    -5.9360    -0.5950 C.3   1 <1>   0.1200 
 25 F       -6.1730     1.8040    -0.4510 F     1 <1>  -0.1900 
 26 O        7.3790     1.0080    -0.4850 O.3   1 <1>  -0.5600 
 27 O        2.6320    -6.6930    -0.0380 O.3   1 <1>  -0.5600 
 28 H       -1.2590    -1.3660     1.1220 H     1 <1>   0.0800 
 29 H       -1.2070    -1.6550    -0.6160 H     1 <1>   0.0800 
 30 H       -2.7200    -0.4200    -2.1430 H     1 <1>   0.1500 
 31 H       -2.8640     0.2590     2.0760 H     1 <1>   0.1500 
 32 H       -4.8690     0.7810    -2.4020 H     1 <1>   0.1500 
 33 H       -5.0120     1.4580     1.8030 H     1 <1>   0.1500 
 34 H        6.0720    -1.9440     0.3330 H     1 <1>   0.0800 
 35 H        6.5790    -0.7280     1.4680 H     1 <1>   0.0800 
 36 H        5.3520     1.7090     1.2080 H     1 <1>   0.0800 
 37 H        4.1770     1.8230    -0.0660 H     1 <1>   0.0800 
 38 H        3.2590    -5.2290     2.1630 H     1 <1>   0.0800 
 39 H        4.4080    -4.2270     1.3370 H     1 <1>   0.0800 
 40 H        0.4420    -4.1820    -0.1610 H     1 <1>   0.0800 
 41 H        0.7290    -5.1900     1.2270 H     1 <1>   0.0800 
 42 H        6.9460    -0.6580    -1.5450 H     1 <1>   0.0800 
 43 H        8.2020    -0.8190    -0.3380 H     1 <1>   0.0800 
 44 H        6.4060     2.7510    -0.7150 H     1 <1>   0.0800 
 45 H        5.8830     1.4570    -1.7690 H     1 <1>   0.0800 
 46 H        4.5290    -6.6220     0.6230 H     1 <1>   0.0800 
 47 H        4.1630    -5.5570    -0.7150 H     1 <1>   0.0800 
 48 H        1.9210    -5.5480    -1.5430 H     1 <1>   0.0800 
 49 H        0.7590    -6.5940    -0.7600 H     1 <1>   0.0800 
@<TRIPOS>BOND
  1   1   2  1   
  2   1   3  1   
  3   2   4  ar  
  4   2   5  ar  
  5   3   6  1   
  6   3  28  1   
  7   3  29  1   
  8   4   7  ar  
  9   5   8  ar  
 10   6   9  ar  
 11   6  10  ar  
 12   7  11  ar  
 13   7  12  1   
 14   8  11  ar  
 15   8  13  1   
 16   9  14  ar  
 17   9  30  1   
 18  10  15  ar  
 19  10  31  1   
 20  12  16  1   
 21  12  17  1   
 22  13  18  1   
 23  13  19  1   
 24  14  20  ar  
 25  14  32  1   
 26  15  20  ar  
 27  15  33  1   
 28  16  21  1   
 29  16  34  1   
 30  16  35  1   
 31  17  22  1   
 32  17  36  1   
 33  17  37  1   
 34  18  23  1   
 35  18  38  1   
 36  18  39  1   
 37  19  24  1   
 38  19  40  1   
 39  19  41  1   
 40  20  25  1   
 41  21  26  1   
 42  21  42  1   
 43  21  43  1   
 44  22  26  1   
 45  22  44  1   
 46  22  45  1   
 47  23  27  1   
 48  23  46  1   
 49  23  47  1   
 50  24  27  1   
 51  24  48  1   
 52  24  49  1   
@<TRIPOS>SUBSTRUCTURE
  1 ****   2 GROUP 4 **** **** 0

# MOE 2024.06 (io_trps.svl 2023.06)
