@<TRIPOS>MOLECULE
5-(2,3-Dimethoxy-phenyl)-1-methyl-2-methylsulfanyl-5,8-dihydro-1H,6H-pyrido[2,3-
44 46 1 0 0 
SMALL
USER_CHARGES


@<TRIPOS>ATOM
  1 S        0.3120     0.0540     0.4020 S.3   1 <1>  -0.3710 
  2 C        1.8680     0.9250     0.5250 C.2   1 <1>   0.6410 
  3 C       -0.6220     0.5430     1.9230 C.3   1 <1>  -0.0100 
  4 N        2.0330     1.6640     1.5540 N.2   1 <1>  -0.6610 
  5 N        2.7710     0.7400    -0.5010 N.pl3 1 <1>  -0.5190 
  6 C        3.2080     2.3440     1.6430 C.2   1 <1>   0.7670 
  7 C        3.9420     1.4590    -0.4550 C.2   1 <1>   0.2090 
  8 C        2.4750    -0.2490    -1.5850 C.3   1 <1>   0.1290 
  9 O        3.3920     3.0080     2.6540 O.2   1 <1>  -0.5700 
 10 C        4.1720     2.2690     0.6140 C.2   1 <1>  -0.1240 
 11 N        4.8600     1.3780    -1.4800 N.am  1 <1>  -0.5390 
 12 C        5.4450     3.1180     0.6870 C.3   1 <1>   0.2020 
 13 C        6.1140     1.8900    -1.4210 C.2   1 <1>   0.5690 
 14 C        5.2260     4.5530     0.1800 C.ar  1 <1>  -0.1440 
 15 C        6.5910     2.4570    -0.1020 C.3   1 <1>  -0.0990 
 16 O        6.8410     1.8560    -2.3780 O.2   1 <1>  -0.5700 
 17 C        6.0530     5.5810     0.6360 C.ar  1 <1>   0.0830 
 18 C        4.2240     4.8510    -0.7370 C.ar  1 <1>  -0.1500 
 19 O        7.0540     5.2360     1.4970 O.3   1 <1>  -0.3630 
 20 C        5.8420     6.9030     0.2110 C.ar  1 <1>   0.0830 
 21 C        4.0320     6.1460    -1.1790 C.ar  1 <1>  -0.1500 
 22 C        8.3590     5.7300     1.2840 C.3   1 <1>   0.0400 
 23 O        6.6150     7.9090     0.7150 O.3   1 <1>  -0.3630 
 24 C        4.8320     7.1680    -0.7080 C.ar  1 <1>  -0.1500 
 25 C        6.1780     9.2500     0.6920 C.3   1 <1>   0.0400 
 26 H       -1.5740     0.0440     1.9030 H     1 <1>   0.0800 
 27 H       -0.7440     1.6110     1.9070 H     1 <1>   0.0800 
 28 H       -0.0440     0.2390     2.7780 H     1 <1>   0.0800 
 29 H        2.1690    -1.1850    -1.1520 H     1 <1>   0.0800 
 30 H        3.3360    -0.4430    -2.1960 H     1 <1>   0.0800 
 31 H        1.6810     0.1260    -2.2080 H     1 <1>   0.0800 
 32 H        4.6080     0.9660    -2.3760 H     1 <1>   0.3700 
 33 H        5.7500     3.1640     1.7190 H     1 <1>   0.0800 
 34 H        6.9940     1.6470     0.4750 H     1 <1>   0.0800 
 35 H        7.3820     3.1620    -0.2790 H     1 <1>   0.0800 
 36 H        3.5770     4.0870    -1.1270 H     1 <1>   0.1500 
 37 H        3.2540     6.3580    -1.8920 H     1 <1>   0.1500 
 38 H        9.0560     5.0320     1.7110 H     1 <1>   0.0800 
 39 H        8.4550     6.6810     1.7760 H     1 <1>   0.0800 
 40 H        8.5340     5.8290     0.2270 H     1 <1>   0.0800 
 41 H        4.6540     8.1610    -1.0710 H     1 <1>   0.1500 
 42 H        6.8480     9.8290     1.3010 H     1 <1>   0.0800 
 43 H        5.1820     9.2990     1.0960 H     1 <1>   0.0800 
 44 H        6.2040     9.6100    -0.3200 H     1 <1>   0.0800 
@<TRIPOS>BOND
  1   1   2  1   
  2   1   3  1   
  3   2   4  2   
  4   2   5  1   
  5   3  26  1   
  6   3  27  1   
  7   3  28  1   
  8   4   6  1   
  9   5   7  1   
 10   5   8  1   
 11   6   9  2   
 12   6  10  1   
 13   7  10  2   
 14   7  11  1   
 15   8  29  1   
 16   8  30  1   
 17   8  31  1   
 18  10  12  1   
 19  11  13  am  
 20  11  32  1   
 21  12  14  1   
 22  12  15  1   
 23  12  33  1   
 24  13  15  1   
 25  13  16  2   
 26  14  17  ar  
 27  14  18  ar  
 28  15  34  1   
 29  15  35  1   
 30  17  19  1   
 31  17  20  ar  
 32  18  21  ar  
 33  18  36  1   
 34  19  22  1   
 35  20  23  1   
 36  20  24  ar  
 37  21  24  ar  
 38  21  37  1   
 39  22  38  1   
 40  22  39  1   
 41  22  40  1   
 42  23  25  1   
 43  24  41  1   
 44  25  42  1   
 45  25  43  1   
 46  25  44  1   
@<TRIPOS>SUBSTRUCTURE
  1 ****  12 GROUP 4 **** **** 0

# MOE 2024.06 (io_trps.svl 2023.06)
