@<TRIPOS>MOLECULE
8-Amino-7-[3-(3,4-dimethyl-phenoxy)-2-hydroxy-propyl]-3-methyl-3,7-dihydro-purin
48 50 1 0 0 
SMALL
USER_CHARGES


@<TRIPOS>ATOM
  1 O        2.5900    -0.4300     0.3370 O.2   1 <1>  -0.5750 
  2 C        3.3440     0.4830     0.0970 C.2   1 <1>   0.6860 
  3 N        4.5760     0.2860    -0.5140 N.am  1 <1>  -0.4420 
  4 N        2.9660     1.7480     0.4440 N.am  1 <1>  -0.4960 
  5 C        5.3660     1.4020    -0.7450 C.2   1 <1>   0.4200 
  6 C        5.0320    -1.0790    -0.9100 C.3   1 <1>   0.0520 
  7 C        3.7350     2.8550     0.2340 C.2   1 <1>   0.6990 
  8 N        6.6000     1.4500    -1.3200 N.pl3 1 <1>  -0.7040 
  9 C        5.0000     2.6620    -0.4100 C.2   1 <1>   0.2700 
 10 O        3.3350     3.9390     0.6090 O.2   1 <1>  -0.5750 
 11 C        6.9880     2.7170    -1.3410 C.cat 1 <1>   1.0680 
 12 N        6.0540     3.5020    -0.8130 N.pl3 1 <1>  -0.7680 
 13 N        8.1470     3.1170    -1.8050 N.pl3 1 <1>  -0.8400 
 14 C        5.9880     5.0020    -0.7920 C.3   1 <1>   0.3470 
 15 C        6.3590     5.6270     0.5700 C.3   1 <1>   0.1920 
 16 O        6.4420     7.0010     0.3810 O.3   1 <1>  -0.6840 
 17 C        7.6960     5.1050     1.1210 C.3   1 <1>   0.1120 
 18 O        8.7060     5.2500     0.1380 O.3   1 <1>  -0.3690 
 19 C        9.8570     4.5370     0.1820 C.ar  1 <1>   0.0740 
 20 C       10.7220     4.7000    -0.8870 C.ar  1 <1>  -0.1580 
 21 C       10.1730     3.6320     1.1880 C.ar  1 <1>  -0.1580 
 22 C       11.8720     3.9360    -0.9950 C.ar  1 <1>  -0.1510 
 23 C       11.3230     2.8710     1.0850 C.ar  1 <1>  -0.1580 
 24 C       12.1710     3.0080    -0.0030 C.ar  1 <1>  -0.1510 
 25 C       12.7910     4.1440    -2.1910 C.3   1 <1>  -0.1050 
 26 C       13.4260     2.1480    -0.0730 C.3   1 <1>  -0.1050 
 27 H        2.0590     1.8570     0.8960 H     1 <1>   0.3640 
 28 H        4.2770    -1.8160    -0.6920 H     1 <1>   0.0720 
 29 H        5.9240    -1.3390    -0.3670 H     1 <1>   0.0720 
 30 H        5.2330    -1.1060    -1.9670 H     1 <1>   0.0720 
 31 H        7.1360     0.6610    -1.6700 H     1 <1>   0.4440 
 32 H        8.5010     4.0450    -1.5400 H     1 <1>   0.4440 
 33 H        8.8910     2.4930    -2.1100 H     1 <1>   0.4440 
 34 H        4.9910     5.3150    -1.0510 H     1 <1>   0.0720 
 35 H        6.6560     5.3930    -1.5410 H     1 <1>   0.0720 
 36 H        5.5710     5.4500     1.2810 H     1 <1>   0.0720 
 37 H        6.7550     7.4570     1.1890 H     1 <1>   0.3940 
 38 H        7.5900     4.0630     1.3600 H     1 <1>   0.0720 
 39 H        7.9950     5.6430     2.0040 H     1 <1>   0.0720 
 40 H       10.4910     5.4350    -1.6380 H     1 <1>   0.1420 
 41 H        9.5550     3.5030     2.0550 H     1 <1>   0.1420 
 42 H       11.5620     2.1710     1.8670 H     1 <1>   0.1420 
 43 H       12.4070     4.9010    -2.8500 H     1 <1>   0.0720 
 44 H       12.8930     3.2300    -2.7460 H     1 <1>   0.0720 
 45 H       13.7640     4.4570    -1.8540 H     1 <1>   0.0720 
 46 H       14.3000     2.7740    -0.0670 H     1 <1>   0.0720 
 47 H       13.4230     1.5590    -0.9710 H     1 <1>   0.0720 
 48 H       13.4860     1.4810     0.7680 H     1 <1>   0.0720 
@<TRIPOS>BOND
  1   1   2  2   
  2   2   3  am  
  3   2   4  am  
  4   3   5  1   
  5   3   6  1   
  6   4   7  am  
  7   4  27  1   
  8   5   8  1   
  9   5   9  2   
 10   6  28  1   
 11   6  29  1   
 12   6  30  1   
 13   7   9  1   
 14   7  10  2   
 15   8  11  ar  
 16   8  31  1   
 17   9  12  1   
 18  11  12  ar  
 19  11  13  ar  
 20  12  14  1   
 21  13  32  1   
 22  13  33  1   
 23  14  15  1   
 24  14  34  1   
 25  14  35  1   
 26  15  16  1   
 27  15  17  1   
 28  15  36  1   
 29  16  37  1   
 30  17  18  1   
 31  17  38  1   
 32  17  39  1   
 33  18  19  1   
 34  19  20  ar  
 35  19  21  ar  
 36  20  22  ar  
 37  20  40  1   
 38  21  23  ar  
 39  21  41  1   
 40  22  24  ar  
 41  22  25  1   
 42  23  24  ar  
 43  23  42  1   
 44  24  26  1   
 45  25  43  1   
 46  25  44  1   
 47  25  45  1   
 48  26  46  1   
 49  26  47  1   
 50  26  48  1   
@<TRIPOS>SUBSTRUCTURE
  1 ****  11 GROUP 4 **** **** 0

# MOE 2024.06 (io_trps.svl 2023.06)
