@<TRIPOS>MOLECULE
N-[3-(4-Chloro-phenyl)-[1,2,4]oxadiazol-5-ylmethyl]-2-cyclohexyl-acetamide
43 45 1 0 0 
SMALL
USER_CHARGES


@<TRIPOS>ATOM
  1 CL      -1.7180     0.4740     2.7470 Cl    1 <1>  -0.1770 
  2 C       -3.1950     0.4640     1.8200 C.ar  1 <1>   0.1770 
  3 C       -3.5030     1.5450     1.0180 C.ar  1 <1>  -0.1500 
  4 C       -4.0410    -0.6260     1.8970 C.ar  1 <1>  -0.1500 
  5 C       -4.6770     1.5310     0.2850 C.ar  1 <1>  -0.1500 
  6 C       -5.2110    -0.6280     1.1590 C.ar  1 <1>  -0.1500 
  7 C       -5.5610     0.4480     0.3350 C.ar  1 <1>   0.0540 
  8 C       -6.7920     0.4470    -0.4390 C.2   1 <1>   0.4620 
  9 N       -7.1860     1.3880    -1.2220 N.2   1 <1>  -0.4100 
 10 N       -7.6640    -0.5660    -0.4090 N.2   1 <1>  -0.5650 
 11 O       -8.3220     1.0340    -1.7340 O.3   1 <1>  -0.0190 
 12 C       -8.5540    -0.1410    -1.2110 C.2   1 <1>   0.2980 
 13 C       -9.8360    -0.8660    -1.5920 C.3   1 <1>   0.3200 
 14 N      -11.0190    -0.2370    -0.9490 N.am  1 <1>  -0.7300 
 15 C      -12.1740     0.0420    -1.5960 C.2   1 <1>   0.5690 
 16 O      -12.3320    -0.2380    -2.7570 O.2   1 <1>  -0.5700 
 17 C      -13.2920     0.7310    -0.8380 C.3   1 <1>  -0.0990 
 18 C      -14.3830    -0.2420    -0.3520 C.3   1 <1>  -0.0800 
 19 C      -15.5480     0.5450     0.2750 C.3   1 <1>  -0.1600 
 20 C      -13.8310    -1.2740     0.6510 C.3   1 <1>  -0.1600 
 21 C      -16.6520    -0.3890     0.7880 C.3   1 <1>  -0.1600 
 22 C      -14.9370    -2.2060     1.1670 C.3   1 <1>  -0.1600 
 23 C      -16.0930    -1.4100     1.7850 C.3   1 <1>  -0.1600 
 24 H       -2.8320     2.3830     0.9720 H     1 <1>   0.1500 
 25 H       -3.7820    -1.4580     2.5270 H     1 <1>   0.1500 
 26 H       -4.9130     2.3770    -0.3390 H     1 <1>   0.1500 
 27 H       -5.8660    -1.4800     1.2230 H     1 <1>   0.1500 
 28 H       -9.7690    -1.8900    -1.2720 H     1 <1>   0.0800 
 29 H       -9.9420    -0.8540    -2.6630 H     1 <1>   0.0800 
 30 H      -10.9120    -0.0050     0.0400 H     1 <1>   0.3700 
 31 H      -13.7330     1.4510    -1.5030 H     1 <1>   0.0800 
 32 H      -12.8810     1.2700    -0.0040 H     1 <1>   0.0800 
 33 H      -14.7610    -0.7740    -1.2110 H     1 <1>   0.0800 
 34 H      -15.9680     1.2150    -0.4560 H     1 <1>   0.0800 
 35 H      -15.1830     1.1390     1.0960 H     1 <1>   0.0800 
 36 H      -13.3850    -0.7640     1.4870 H     1 <1>   0.0800 
 37 H      -13.0720    -1.8750     0.1820 H     1 <1>   0.0800 
 38 H      -17.0940    -0.9090    -0.0450 H     1 <1>   0.0800 
 39 H      -17.4250     0.1910     1.2610 H     1 <1>   0.0800 
 40 H      -14.5290    -2.8780     1.9020 H     1 <1>   0.0800 
 41 H      -15.3110    -2.7990     0.3500 H     1 <1>   0.0800 
 42 H      -16.8750    -2.0860     2.0860 H     1 <1>   0.0800 
 43 H      -15.7430    -0.8970     2.6640 H     1 <1>   0.0800 
@<TRIPOS>BOND
  1   1   2  1   
  2   2   3  ar  
  3   2   4  ar  
  4   3   5  ar  
  5   3  24  1   
  6   4   6  ar  
  7   4  25  1   
  8   5   7  ar  
  9   5  26  1   
 10   6   7  ar  
 11   6  27  1   
 12   7   8  1   
 13   8   9  2   
 14   8  10  1   
 15   9  11  1   
 16  10  12  2   
 17  11  12  1   
 18  12  13  1   
 19  13  14  1   
 20  13  28  1   
 21  13  29  1   
 22  14  15  am  
 23  14  30  1   
 24  15  16  2   
 25  15  17  1   
 26  17  18  1   
 27  17  31  1   
 28  17  32  1   
 29  18  19  1   
 30  18  20  1   
 31  18  33  1   
 32  19  21  1   
 33  19  34  1   
 34  19  35  1   
 35  20  22  1   
 36  20  36  1   
 37  20  37  1   
 38  21  23  1   
 39  21  38  1   
 40  21  39  1   
 41  22  23  1   
 42  22  40  1   
 43  22  41  1   
 44  23  42  1   
 45  23  43  1   
@<TRIPOS>SUBSTRUCTURE
  1 ****  12 GROUP 4 **** **** 0

# MOE 2024.06 (io_trps.svl 2023.06)
