@<TRIPOS>MOLECULE
2-Amino-5-(2,3,4-trimethoxy-phenyl)-5,8-dihydro-3H,6H-pyrido[2,3-d]pyrimidine-4,
43 45 1 0 0 
SMALL
USER_CHARGES


@<TRIPOS>ATOM
  1 O       -0.2520    -0.3380    -0.2580 O.2   1 <1>  -0.5700 
  2 C        0.1540    -1.4400    -0.6080 C.2   1 <1>   0.6160 
  3 N       -0.4190    -1.9890    -1.7040 N.am  1 <1>  -0.4900 
  4 C        1.1120    -2.2200     0.0610 C.2   1 <1>  -0.1240 
  5 C       -0.1460    -3.2550    -2.0800 C.2   1 <1>   0.5600 
  6 C        1.2950    -3.5020    -0.3720 C.2   1 <1>   0.2800 
  7 C        1.8970    -1.6720     1.2570 C.3   1 <1>   0.2020 
  8 N        0.6670    -4.0330    -1.4420 N.2   1 <1>  -0.6210 
  9 N       -0.7580    -3.7320    -3.1670 N.pl3 1 <1>  -0.8500 
 10 N        2.1210    -4.3630     0.2970 N.am  1 <1>  -0.5390 
 11 C        2.4230    -0.2480     1.0260 C.ar  1 <1>  -0.1430 
 12 C        3.0760    -2.5700     1.6940 C.3   1 <1>  -0.0990 
 13 C        2.9000    -4.0320     1.3510 C.2   1 <1>   0.5690 
 14 C        3.1970     0.0860    -0.0900 C.ar  1 <1>   0.0830 
 15 C        2.1130     0.7300     1.9600 C.ar  1 <1>  -0.1500 
 16 O        3.4730    -4.8720     1.9940 O.2   1 <1>  -0.5700 
 17 O        3.4670    -0.9230    -0.9710 O.3   1 <1>  -0.3630 
 18 C        3.6430     1.4050    -0.2670 C.ar  1 <1>   0.0830 
 19 C        2.5400     2.0320     1.7850 C.ar  1 <1>  -0.1500 
 20 C        4.7470    -1.0740    -1.5410 C.3   1 <1>   0.0400 
 21 O        4.4000     1.7410    -1.3540 O.3   1 <1>  -0.3630 
 22 C        3.2810     2.3780     0.6710 C.ar  1 <1>   0.0830 
 23 C        5.6970     2.2390    -1.1020 C.3   1 <1>   0.0400 
 24 O        3.6080     3.6860     0.5340 O.3   1 <1>  -0.3630 
 25 C        2.8900     4.3880    -0.4560 C.3   1 <1>   0.0400 
 26 H       -1.0910    -1.4150    -2.1950 H     1 <1>   0.3700 
 27 H        1.1960    -1.6510     2.0720 H     1 <1>   0.0800 
 28 H       -0.5290    -4.6790    -3.4690 H     1 <1>   0.4000 
 29 H       -1.3480    -3.1860    -3.7900 H     1 <1>   0.4000 
 30 H        2.1030    -5.3400     0.0140 H     1 <1>   0.3700 
 31 H        3.2290    -2.4700     2.7530 H     1 <1>   0.0800 
 32 H        3.9800    -2.2520     1.2110 H     1 <1>   0.0800 
 33 H        1.5230     0.4920     2.8280 H     1 <1>   0.1500 
 34 H        2.2890     2.7890     2.5050 H     1 <1>   0.1500 
 35 H        4.8190    -0.4380    -2.4050 H     1 <1>   0.0800 
 36 H        4.8600    -2.1000    -1.8380 H     1 <1>   0.0800 
 37 H        5.4920    -0.8160    -0.8100 H     1 <1>   0.0800 
 38 H        5.6310     3.2620    -0.7800 H     1 <1>   0.0800 
 39 H        6.2610     2.1830    -2.0150 H     1 <1>   0.0800 
 40 H        6.1630     1.6370    -0.3420 H     1 <1>   0.0800 
 41 H        3.2030     5.4160    -0.4350 H     1 <1>   0.0800 
 42 H        1.8390     4.3160    -0.2370 H     1 <1>   0.0800 
 43 H        3.0990     3.9570    -1.4180 H     1 <1>   0.0800 
@<TRIPOS>BOND
  1   1   2  2   
  2   2   3  am  
  3   2   4  1   
  4   3   5  1   
  5   3  26  1   
  6   4   6  2   
  7   4   7  1   
  8   5   8  2   
  9   5   9  1   
 10   6   8  1   
 11   6  10  1   
 12   7  11  1   
 13   7  12  1   
 14   7  27  1   
 15   9  28  1   
 16   9  29  1   
 17  10  13  am  
 18  10  30  1   
 19  11  14  ar  
 20  11  15  ar  
 21  12  13  1   
 22  12  31  1   
 23  12  32  1   
 24  13  16  2   
 25  14  17  1   
 26  14  18  ar  
 27  15  19  ar  
 28  15  33  1   
 29  17  20  1   
 30  18  21  1   
 31  18  22  ar  
 32  19  22  ar  
 33  19  34  1   
 34  20  35  1   
 35  20  36  1   
 36  20  37  1   
 37  21  23  1   
 38  22  24  1   
 39  23  38  1   
 40  23  39  1   
 41  23  40  1   
 42  24  25  1   
 43  25  41  1   
 44  25  42  1   
 45  25  43  1   
@<TRIPOS>SUBSTRUCTURE
  1 ****  11 GROUP 4 **** **** 0

# MOE 2024.06 (io_trps.svl 2023.06)
