@<TRIPOS>MOLECULE
3-(4-Chloro-phenyl)-propylamine
24 24 1 0 0 
SMALL
USER_CHARGES


@<TRIPOS>ATOM
  1 CL       0.0830     0.0140     0.6680 Cl    1 <1>  -0.1770 
  2 C        1.5320    -0.8720     0.2660 C.ar  1 <1>   0.1770 
  3 C        2.6970    -0.6180     0.9650 C.ar  1 <1>  -0.1500 
  4 C        1.4940    -1.8130    -0.7440 C.ar  1 <1>  -0.1500 
  5 C        3.8460    -1.3230     0.6450 C.ar  1 <1>  -0.1500 
  6 C        2.6450    -2.5160    -1.0590 C.ar  1 <1>  -0.1500 
  7 C        3.8240    -2.2760    -0.3660 C.ar  1 <1>  -0.1430 
  8 C        5.0830    -3.0520    -0.7100 C.3   1 <1>  -0.0160 
  9 C        5.1510    -4.3300     0.1370 C.3   1 <1>  -0.1600 
 10 C        6.4050    -5.1410    -0.1800 C.3   1 <1>   0.3430 
 11 N        6.4190    -6.3590     0.6630 N.4   1 <1>  -0.8530 
 12 H        2.7000     0.1220     1.7440 H     1 <1>   0.1500 
 13 H        0.5740    -1.9890    -1.2730 H     1 <1>   0.1500 
 14 H        4.7520    -1.1210     1.1890 H     1 <1>   0.1500 
 15 H        2.6120    -3.2460    -1.8490 H     1 <1>   0.1500 
 16 H        5.9440    -2.4320    -0.5250 H     1 <1>   0.0800 
 17 H        5.0740    -3.2950    -1.7590 H     1 <1>   0.0800 
 18 H        4.2710    -4.9180    -0.0650 H     1 <1>   0.0800 
 19 H        5.1460    -4.0490     1.1760 H     1 <1>   0.0800 
 20 H        7.2820    -4.5440     0.0180 H     1 <1>   0.0800 
 21 H        6.4070    -5.4130    -1.2240 H     1 <1>   0.0800 
 22 H        6.4190    -6.1130     1.6600 H     1 <1>   0.4500 
 23 H        7.2510    -6.9310     0.4770 H     1 <1>   0.4500 
 24 H        5.5890    -6.9370     0.4830 H     1 <1>   0.4500 
@<TRIPOS>BOND
  1   1   2  1   
  2   2   3  ar  
  3   2   4  ar  
  4   3   5  ar  
  5   3  12  1   
  6   4   6  ar  
  7   4  13  1   
  8   5   7  ar  
  9   5  14  1   
 10   6   7  ar  
 11   6  15  1   
 12   7   8  1   
 13   8   9  1   
 14   8  16  1   
 15   8  17  1   
 16   9  10  1   
 17   9  18  1   
 18   9  19  1   
 19  10  11  1   
 20  10  20  1   
 21  10  21  1   
 22  11  22  1   
 23  11  23  1   
 24  11  24  1   
@<TRIPOS>SUBSTRUCTURE
  1 ****   7 GROUP 4 **** **** 0

# MOE 2024.06 (io_trps.svl 2023.06)
