@<TRIPOS>MOLECULE
7-(4-Fluoro-benzyl)-3-methyl-8-(3-morpholin-4-yl-propylamino)-3,7-dihydro-purine
57 60 1 0 0 
SMALL
USER_CHARGES


@<TRIPOS>ATOM
  1 F       -0.2240    -1.5550    -0.0250 F     1 <1>  -0.1960 
  2 C       -1.5250    -1.4560     0.0050 C.ar  1 <1>   0.1840 
  3 C       -2.2090    -1.2740    -1.1810 C.ar  1 <1>  -0.1570 
  4 C       -2.1740    -1.5640     1.2200 C.ar  1 <1>  -0.1570 
  5 C       -3.5920    -1.2230    -1.1500 C.ar  1 <1>  -0.1570 
  6 C       -3.5570    -1.5140     1.2400 C.ar  1 <1>  -0.1570 
  7 C       -4.2710    -1.3590     0.0570 C.ar  1 <1>  -0.1500 
  8 C       -5.7930    -1.3920     0.0780 C.3   1 <1>   0.4930 
  9 N       -6.2950    -2.8030     0.0340 N.pl3 1 <1>  -0.7670 
 10 C       -5.6840    -3.9820    -0.1370 C.cat 1 <1>   1.0690 
 11 C       -7.6650    -3.0830     0.1950 C.2   1 <1>   0.2710 
 12 N       -6.5720    -4.9710    -0.0870 N.pl3 1 <1>  -0.7030 
 13 N       -4.3800    -4.1610    -0.3370 N.pl3 1 <1>  -0.7180 
 14 C       -8.8390    -2.2880     0.4020 C.2   1 <1>   0.7000 
 15 C       -7.8020    -4.4260     0.1180 C.2   1 <1>   0.4210 
 16 C       -3.5600    -5.3860    -0.4600 C.3   1 <1>   0.1610 
 17 O       -8.8130    -1.0760     0.4840 O.2   1 <1>  -0.5740 
 18 N      -10.0290    -2.9460     0.5070 N.am  1 <1>  -0.4950 
 19 N       -9.0200    -5.0800     0.2320 N.am  1 <1>  -0.4410 
 20 C       -2.1330    -5.0330    -0.0260 C.3   1 <1>  -0.1670 
 21 C      -10.1550    -4.3030     0.4240 C.2   1 <1>   0.6870 
 22 C       -9.1170    -6.5670     0.1370 C.3   1 <1>   0.0530 
 23 C       -1.1670    -6.2140    -0.1590 C.3   1 <1>   0.3380 
 24 O      -11.2590    -4.7850     0.5170 O.2   1 <1>  -0.5740 
 25 N        0.1490    -5.8620     0.4340 N.4   1 <1>  -0.9610 
 26 C        0.9040    -4.7630    -0.2650 C.3   1 <1>   0.3380 
 27 C        1.0480    -7.0530     0.6000 C.3   1 <1>   0.3380 
 28 C        2.2070    -4.4200     0.4920 C.3   1 <1>   0.1130 
 29 C        2.4080    -6.6500     1.2170 C.3   1 <1>   0.1130 
 30 O        2.4150    -5.2940     1.5710 O.3   1 <1>  -0.5640 
 31 H       -1.6680    -1.1690    -2.1060 H     1 <1>   0.1430 
 32 H       -1.6060    -1.6800     2.1280 H     1 <1>   0.1430 
 33 H       -4.1300    -1.0770    -2.0750 H     1 <1>   0.1430 
 34 H       -4.0680    -1.5960     2.1870 H     1 <1>   0.1430 
 35 H       -6.1850    -0.8440    -0.7620 H     1 <1>   0.0730 
 36 H       -6.1480    -0.9120     0.9760 H     1 <1>   0.0730 
 37 H       -6.3660    -5.9570    -0.2090 H     1 <1>   0.4450 
 38 H       -3.8370    -3.2890    -0.3670 H     1 <1>   0.4450 
 39 H       -3.5640    -5.7170    -1.4870 H     1 <1>   0.0730 
 40 H       -3.9610    -6.1680     0.1650 H     1 <1>   0.0730 
 41 H      -10.8810    -2.4050     0.6500 H     1 <1>   0.3650 
 42 H       -2.1530    -4.7120     1.0010 H     1 <1>   0.0730 
 43 H       -1.7800    -4.2300    -0.6470 H     1 <1>   0.0730 
 44 H       -8.9420    -6.8800    -0.8770 H     1 <1>   0.0730 
 45 H      -10.0950    -6.9060     0.4340 H     1 <1>   0.0730 
 46 H       -8.3930    -7.0270     0.7870 H     1 <1>   0.0730 
 47 H       -1.0420    -6.4800    -1.1970 H     1 <1>   0.0730 
 48 H       -1.5720    -7.0660     0.3630 H     1 <1>   0.0730 
 49 H        0.0260    -5.5100     1.3970 H     1 <1>   0.4450 
 50 H        0.3000    -3.8750    -0.3320 H     1 <1>   0.0730 
 51 H        1.1500    -5.0680    -1.2690 H     1 <1>   0.0730 
 52 H        1.2220    -7.5220    -0.3550 H     1 <1>   0.0730 
 53 H        0.5780    -7.7810     1.2400 H     1 <1>   0.0730 
 54 H        2.1520    -3.4210     0.8880 H     1 <1>   0.0730 
 55 H        3.0570    -4.4750    -0.1660 H     1 <1>   0.0730 
 56 H        3.2110    -6.8290     0.5220 H     1 <1>   0.0730 
 57 H        2.5990    -7.2250     2.1060 H     1 <1>   0.0730 
@<TRIPOS>BOND
  1   1   2  1   
  2   2   3  ar  
  3   2   4  ar  
  4   3   5  ar  
  5   3  31  1   
  6   4   6  ar  
  7   4  32  1   
  8   5   7  ar  
  9   5  33  1   
 10   6   7  ar  
 11   6  34  1   
 12   7   8  1   
 13   8   9  1   
 14   8  35  1   
 15   8  36  1   
 16   9  10  ar  
 17   9  11  1   
 18  10  12  ar  
 19  10  13  ar  
 20  11  14  1   
 21  11  15  2   
 22  12  15  1   
 23  12  37  1   
 24  13  16  1   
 25  13  38  1   
 26  14  17  2   
 27  14  18  am  
 28  15  19  1   
 29  16  20  1   
 30  16  39  1   
 31  16  40  1   
 32  18  21  am  
 33  18  41  1   
 34  19  21  am  
 35  19  22  1   
 36  20  23  1   
 37  20  42  1   
 38  20  43  1   
 39  21  24  2   
 40  22  44  1   
 41  22  45  1   
 42  22  46  1   
 43  23  25  1   
 44  23  47  1   
 45  23  48  1   
 46  25  26  1   
 47  25  27  1   
 48  25  49  1   
 49  26  28  1   
 50  26  50  1   
 51  26  51  1   
 52  27  29  1   
 53  27  52  1   
 54  27  53  1   
 55  28  30  1   
 56  28  54  1   
 57  28  55  1   
 58  29  30  1   
 59  29  56  1   
 60  29  57  1   
@<TRIPOS>SUBSTRUCTURE
  1 ****  13 GROUP 4 **** **** 0

# MOE 2024.06 (io_trps.svl 2023.06)
