@<TRIPOS>MOLECULE
1-[3-Chloro-4-(3,4-dihydro-2H-quinoline-1-sulfonyl)-phenyl]-pyrrolidin-2-one
45 48 1 0 0 
SMALL
USER_CHARGES


@<TRIPOS>ATOM
  1 CL       0.2710    -0.7260     0.0520 Cl    1 <1>  -0.1770 
  2 C        1.5650     0.3190    -0.4830 C.ar  1 <1>   0.1770 
  3 C        2.4790    -0.0960    -1.4420 C.ar  1 <1>  -0.0090 
  4 C        1.6190     1.5730     0.0940 C.ar  1 <1>  -0.1500 
  5 S        2.4240    -1.7390    -2.1950 S.o2  1 <1>   1.4470 
  6 C        3.4540     0.8250    -1.8150 C.ar  1 <1>  -0.1500 
  7 C        2.6000     2.4840    -0.2770 C.ar  1 <1>   0.1170 
  8 O        1.1300    -1.9270    -2.8120 O.2   1 <1>  -0.6500 
  9 O        3.6050    -1.9360    -3.0050 O.2   1 <1>  -0.6500 
 10 N        2.5370    -2.8430    -0.8520 N.am  1 <1>  -0.6930 
 11 C        3.5150     2.0840    -1.2450 C.ar  1 <1>  -0.1500 
 12 N        2.6590     3.7670     0.3000 N.am  1 <1>  -0.4770 
 13 C        3.6900    -3.0170    -0.0550 C.ar  1 <1>   0.1990 
 14 C        1.3950    -3.7890    -0.7300 C.3   1 <1>   0.1960 
 15 C        3.7710     4.5120     0.5810 C.2   1 <1>   0.5690 
 16 C        1.4310     4.5060     0.6590 C.3   1 <1>   0.1400 
 17 C        3.7460    -4.0330     0.9090 C.ar  1 <1>  -0.1440 
 18 C        4.8100    -2.1900    -0.1730 C.ar  1 <1>  -0.1500 
 19 C        1.2780    -4.3350     0.6900 C.3   1 <1>  -0.1600 
 20 O        4.9210     4.1840     0.4210 O.2   1 <1>  -0.5700 
 21 C        3.4030     5.8570     1.1470 C.3   1 <1>  -0.0990 
 22 C        1.8910     5.9470     0.9080 C.3   1 <1>  -0.1600 
 23 C        4.8660    -4.1960     1.7090 C.ar  1 <1>  -0.1500 
 24 C        2.5870    -4.9950     1.1060 C.3   1 <1>  -0.0170 
 25 C        5.9240    -2.3510     0.6290 C.ar  1 <1>  -0.1500 
 26 C        5.9550    -3.3560     1.5740 C.ar  1 <1>  -0.1500 
 27 H        0.8930     1.8300     0.8410 H     1 <1>   0.1500 
 28 H        4.1830     0.5550    -2.5630 H     1 <1>   0.1500 
 29 H        4.2860     2.7670    -1.5580 H     1 <1>   0.1500 
 30 H        1.5400    -4.5970    -1.4280 H     1 <1>   0.0800 
 31 H        0.4700    -3.2980    -0.9770 H     1 <1>   0.0800 
 32 H        1.0140     4.0850     1.5590 H     1 <1>   0.0800 
 33 H        0.7090     4.4560    -0.1380 H     1 <1>   0.0800 
 34 H        4.8430    -1.4020    -0.8950 H     1 <1>   0.1500 
 35 H        0.4750    -5.0480     0.7370 H     1 <1>   0.0800 
 36 H        1.0460    -3.5250     1.3590 H     1 <1>   0.0800 
 37 H        3.9380     6.6420     0.6450 H     1 <1>   0.0800 
 38 H        3.6330     5.8670     2.1970 H     1 <1>   0.0800 
 39 H        1.3730     6.3930     1.7380 H     1 <1>   0.0800 
 40 H        1.6980     6.5310     0.0250 H     1 <1>   0.0800 
 41 H        4.8990    -4.9800     2.4450 H     1 <1>   0.1500 
 42 H        2.5210    -5.2960     2.1370 H     1 <1>   0.0800 
 43 H        2.7590    -5.8730     0.5080 H     1 <1>   0.0800 
 44 H        6.7690    -1.6950     0.5140 H     1 <1>   0.1500 
 45 H        6.8210    -3.4850     2.2000 H     1 <1>   0.1500 
@<TRIPOS>BOND
  1   1   2  1   
  2   2   3  ar  
  3   2   4  ar  
  4   3   5  1   
  5   3   6  ar  
  6   4   7  ar  
  7   4  27  1   
  8   5   8  2   
  9   5   9  2   
 10   5  10  am  
 11   6  11  ar  
 12   6  28  1   
 13   7  11  ar  
 14   7  12  1   
 15  10  13  1   
 16  10  14  1   
 17  11  29  1   
 18  12  15  am  
 19  12  16  1   
 20  13  17  ar  
 21  13  18  ar  
 22  14  19  1   
 23  14  30  1   
 24  14  31  1   
 25  15  20  2   
 26  15  21  1   
 27  16  22  1   
 28  16  32  1   
 29  16  33  1   
 30  17  23  ar  
 31  17  24  1   
 32  18  25  ar  
 33  18  34  1   
 34  19  24  1   
 35  19  35  1   
 36  19  36  1   
 37  21  22  1   
 38  21  37  1   
 39  21  38  1   
 40  22  39  1   
 41  22  40  1   
 42  23  26  ar  
 43  23  41  1   
 44  24  42  1   
 45  24  43  1   
 46  25  26  ar  
 47  25  44  1   
 48  26  45  1   
@<TRIPOS>SUBSTRUCTURE
  1 ****   3 GROUP 4 **** **** 0

# MOE 2024.06 (io_trps.svl 2023.06)
