@<TRIPOS>MOLECULE
4-Ethyl-[1,2,3]thiadiazole-5-carboxylic acid
15 15 1 0 0 
SMALL
USER_CHARGES


@<TRIPOS>ATOM
  1 S        0.3500     0.1370    -1.1650 S.3   1 <1>   0.1810 
  2 N       -0.4790    -1.2760    -1.6050 N.2   1 <1>  -0.2210 
  3 C        1.4970    -0.7080    -0.1890 C.2   1 <1>  -0.1920 
  4 N        0.0530    -2.2830    -1.0710 N.2   1 <1>  -0.2270 
  5 C        1.1480    -2.0040    -0.2820 C.2   1 <1>   0.0460 
  6 C        2.5170     0.0540     0.4750 C.2   1 <1>   1.0320 
  7 C        1.8380    -3.1780     0.3970 C.3   1 <1>   0.0210 
  8 O        2.5650     1.2910     0.3630 O.co2 1 <1>  -0.9000 
  9 O        3.3720    -0.5140     1.1770 O.co2 1 <1>  -0.9000 
 10 C        2.6230    -4.0230    -0.6120 C.3   1 <1>  -0.2400 
 11 H        1.0950    -3.7850     0.8830 H     1 <1>   0.0800 
 12 H        2.5110    -2.8220     1.1550 H     1 <1>   0.0800 
 13 H        1.9620    -4.4110    -1.3670 H     1 <1>   0.0800 
 14 H        3.1060    -4.8420    -0.1120 H     1 <1>   0.0800 
 15 H        3.3720    -3.4130    -1.0860 H     1 <1>   0.0800 
@<TRIPOS>BOND
  1   1   2  1   
  2   1   3  1   
  3   2   4  2   
  4   3   5  2   
  5   3   6  1   
  6   4   5  1   
  7   5   7  1   
  8   6   8  ar  
  9   6   9  ar  
 10   7  10  1   
 11   7  11  1   
 12   7  12  1   
 13  10  13  1   
 14  10  14  1   
 15  10  15  1   
@<TRIPOS>SUBSTRUCTURE
  1 ****   3 GROUP 4 **** **** 0

# MOE 2024.06 (io_trps.svl 2023.06)
