@<TRIPOS>MOLECULE
6-Adamantan-1-yl-3-pyridin-4-yl-[1,2,4]triazolo[3,4-b][1,3,4]thiadiazole
43 48 1 0 0 
SMALL
USER_CHARGES


@<TRIPOS>ATOM
  1 S       -0.1230    -0.2440     2.2100 S.3   1 <1>  -0.1970 
  2 C       -1.7200     0.4610     2.1370 C.2   1 <1>   0.2420 
  3 C       -0.6330    -1.4190     0.9750 C.2   1 <1>   0.5300 
  4 N       -2.3160     1.4380     2.7180 N.2   1 <1>  -0.3380 
  5 N       -2.4470    -0.2000     1.2590 N.pl3 1 <1>   0.5050 
  6 N       -1.8390    -1.2720     0.5890 N.2   1 <1>  -0.6520 
  7 C        0.4060    -2.4570     0.5180 C.3   1 <1>   0.0610 
  8 N       -3.5460     1.4390     2.1890 N.2   1 <1>  -0.3380 
  9 C       -3.6300     0.4590     1.3140 C.2   1 <1>   0.1330 
 10 C        0.8750    -3.3290     1.7110 C.3   1 <1>  -0.1600 
 11 C       -0.2010    -3.3990    -0.5550 C.3   1 <1>  -0.1600 
 12 C        1.6440    -1.7600    -0.1020 C.3   1 <1>  -0.1600 
 13 C       -4.8040     0.1450     0.5300 C.ar  1 <1>   0.0530 
 14 C        1.9110    -4.3720     1.2530 C.3   1 <1>  -0.0800 
 15 C        0.8280    -4.4440    -1.0230 C.3   1 <1>  -0.0800 
 16 C        2.6830    -2.7990    -0.5650 C.3   1 <1>  -0.0800 
 17 C       -4.9500    -0.9950    -0.2530 C.ar  1 <1>  -0.1500 
 18 C       -5.9040     0.9930     0.5090 C.ar  1 <1>  -0.1500 
 19 C        1.2780    -5.2830     0.1860 C.3   1 <1>  -0.1600 
 20 C        3.1250    -3.6450     0.6430 C.3   1 <1>  -0.1600 
 21 C        2.0460    -3.7190    -1.6220 C.3   1 <1>  -0.1600 
 22 C       -6.1090    -1.2120    -0.9730 C.ar  1 <1>   0.1600 
 23 C       -7.0200     0.6870    -0.2450 C.ar  1 <1>   0.1600 
 24 N       -7.1500    -0.3970    -0.9900 N.ar  1 <1>  -0.6200 
 25 H        0.0290    -3.8310     2.1480 H     1 <1>   0.0800 
 26 H        1.3170    -2.7130     2.4740 H     1 <1>   0.0800 
 27 H       -0.5320    -2.8220    -1.4020 H     1 <1>   0.0800 
 28 H       -1.0620    -3.9040    -0.1520 H     1 <1>   0.0800 
 29 H        2.1050    -1.1070     0.6180 H     1 <1>   0.0800 
 30 H        1.3410    -1.1580    -0.9410 H     1 <1>   0.0800 
 31 H        2.2280    -4.9650     2.0940 H     1 <1>   0.0800 
 32 H        0.3850    -5.0850    -1.7660 H     1 <1>   0.0800 
 33 H        3.5370    -2.2970    -0.9880 H     1 <1>   0.0800 
 34 H       -4.1700    -1.7300    -0.3120 H     1 <1>   0.1500 
 35 H       -5.8910     1.9010     1.0850 H     1 <1>   0.1500 
 36 H        0.4350    -5.8060     0.6040 H     1 <1>   0.0800 
 37 H        1.9930    -6.0230    -0.1320 H     1 <1>   0.0800 
 38 H        3.8610    -4.3660     0.3320 H     1 <1>   0.0800 
 39 H        3.5830    -3.0140     1.3850 H     1 <1>   0.0800 
 40 H        1.7430    -3.1390    -2.4770 H     1 <1>   0.0800 
 41 H        2.7690    -4.4410    -1.9590 H     1 <1>   0.0800 
 42 H       -6.1870    -2.1050    -1.5700 H     1 <1>   0.1500 
 43 H       -7.8530     1.3700    -0.2360 H     1 <1>   0.1500 
@<TRIPOS>BOND
  1   1   2  1   
  2   1   3  1   
  3   2   4  2   
  4   2   5  1   
  5   3   6  2   
  6   3   7  1   
  7   4   8  1   
  8   5   6  1   
  9   5   9  1   
 10   7  10  1   
 11   7  11  1   
 12   7  12  1   
 13   8   9  2   
 14   9  13  1   
 15  10  14  1   
 16  10  25  1   
 17  10  26  1   
 18  11  15  1   
 19  11  27  1   
 20  11  28  1   
 21  12  16  1   
 22  12  29  1   
 23  12  30  1   
 24  13  17  ar  
 25  13  18  ar  
 26  14  19  1   
 27  14  20  1   
 28  14  31  1   
 29  15  19  1   
 30  15  21  1   
 31  15  32  1   
 32  16  20  1   
 33  16  21  1   
 34  16  33  1   
 35  17  22  ar  
 36  17  34  1   
 37  18  23  ar  
 38  18  35  1   
 39  19  36  1   
 40  19  37  1   
 41  20  38  1   
 42  20  39  1   
 43  21  40  1   
 44  21  41  1   
 45  22  24  ar  
 46  22  42  1   
 47  23  24  ar  
 48  23  43  1   
@<TRIPOS>SUBSTRUCTURE
  1 ****   6 GROUP 4 **** **** 0

# MOE 2024.06 (io_trps.svl 2023.06)
