@<TRIPOS>MOLECULE
3-Phenylmethanesulfonyl-propionic acid
26 26 1 0 0 
SMALL
USER_CHARGES


@<TRIPOS>ATOM
  1 S       -0.3660    -0.2890    -0.8530 S.o2  1 <1>   1.0900 
  2 O       -0.0120     1.0600    -1.2490 O.2   1 <1>  -0.6500 
  3 O       -1.1500    -1.0730    -1.7860 O.2   1 <1>  -0.6500 
  4 C       -1.2080    -0.2170     0.7400 C.3   1 <1>   0.0890 
  5 C        1.2070    -1.1400    -0.6240 C.3   1 <1>  -0.0550 
  6 C       -2.4960     0.6030     0.7300 C.ar  1 <1>  -0.1440 
  7 C        1.1410    -2.5880    -0.0920 C.3   1 <1>  -0.2660 
  8 C       -2.4520     1.9840     0.6200 C.ar  1 <1>  -0.1500 
  9 C       -3.7240    -0.0310     0.8340 C.ar  1 <1>  -0.1500 
 10 C        0.6310    -2.6210     1.3200 C.2   1 <1>   0.9060 
 11 C       -3.6220     2.7240     0.6160 C.ar  1 <1>  -0.1500 
 12 C       -4.8960     0.7070     0.8310 C.ar  1 <1>  -0.1500 
 13 O        1.0050    -1.7310     2.0870 O.co2 1 <1>  -0.9000 
 14 O       -0.2250    -3.4480     1.6250 O.co2 1 <1>  -0.9000 
 15 C       -4.8450     2.0850     0.7230 C.ar  1 <1>  -0.1500 
 16 H       -0.5480     0.1980     1.4770 H     1 <1>   0.0800 
 17 H       -1.4540    -1.2100     1.0610 H     1 <1>   0.0800 
 18 H        1.8220    -0.5630     0.0410 H     1 <1>   0.0800 
 19 H        1.7120    -1.1630    -1.5700 H     1 <1>   0.0800 
 20 H        2.1190    -3.0260    -0.0930 H     1 <1>   0.0800 
 21 H        0.4940    -3.1830    -0.7100 H     1 <1>   0.0800 
 22 H       -1.5040     2.4870     0.5290 H     1 <1>   0.1500 
 23 H       -3.7700    -1.1040     0.9160 H     1 <1>   0.1500 
 24 H       -3.5770     3.7950     0.5270 H     1 <1>   0.1500 
 25 H       -5.8440     0.2050     0.9110 H     1 <1>   0.1500 
 26 H       -5.7550     2.6590     0.7190 H     1 <1>   0.1500 
@<TRIPOS>BOND
  1   1   2  2   
  2   1   3  2   
  3   1   4  1   
  4   1   5  1   
  5   4   6  1   
  6   4  16  1   
  7   4  17  1   
  8   5   7  1   
  9   5  18  1   
 10   5  19  1   
 11   6   8  ar  
 12   6   9  ar  
 13   7  10  1   
 14   7  20  1   
 15   7  21  1   
 16   8  11  ar  
 17   8  22  1   
 18   9  12  ar  
 19   9  23  1   
 20  10  13  ar  
 21  10  14  ar  
 22  11  15  ar  
 23  11  24  1   
 24  12  15  ar  
 25  12  25  1   
 26  15  26  1   
@<TRIPOS>SUBSTRUCTURE
  1 ****   4 GROUP 4 **** **** 0

# MOE 2024.06 (io_trps.svl 2023.06)
