@<TRIPOS>MOLECULE
3,4-Dichloro-2-methoxy-N-(2,2,6,6-tetramethyl-piperidin-4-yl)-benzenesulfonamide
49 50 1 0 0 
SMALL
USER_CHARGES


@<TRIPOS>ATOM
  1 CL      -1.7560     0.3880     2.4310 Cl    1 <1>  -0.1770 
  2 C       -2.1700    -0.5560     1.0120 C.ar  1 <1>   0.1770 
  3 C       -3.3120    -0.2550     0.2730 C.ar  1 <1>   0.0830 
  4 C       -1.3620    -1.6150     0.6380 C.ar  1 <1>   0.1770 
  5 O       -4.1100     0.7850     0.6220 O.3   1 <1>  -0.3630 
  6 C       -3.6660    -1.0390    -0.8240 C.ar  1 <1>  -0.0090 
  7 CL       0.0840    -2.0040     1.5390 Cl    1 <1>  -0.1770 
  8 C       -1.6880    -2.3900    -0.4590 C.ar  1 <1>  -0.1500 
  9 C       -3.6520     2.0820     0.2880 C.3   1 <1>   0.0400 
 10 S       -5.1720    -0.6730    -1.7540 S.o2  1 <1>   1.4470 
 11 C       -2.8360    -2.1000    -1.1790 C.ar  1 <1>  -0.1500 
 12 O       -5.4990    -1.7640    -2.6430 O.2   1 <1>  -0.6500 
 13 O       -5.1470     0.6790    -2.2590 O.2   1 <1>  -0.6500 
 14 N       -6.3620    -0.6420    -0.5680 N.am  1 <1>  -0.9140 
 15 C       -7.6820    -0.3590    -1.0880 C.3   1 <1>   0.2760 
 16 C       -8.4210     0.4750    -0.0330 C.3   1 <1>  -0.1600 
 17 C       -8.4010    -1.6750    -1.4280 C.3   1 <1>  -0.1600 
 18 C       -9.9380     0.2520    -0.0140 C.3   1 <1>   0.5030 
 19 C       -9.3320    -2.2010    -0.3310 C.3   1 <1>   0.5030 
 20 N      -10.2730    -1.1710     0.1280 N.4   1 <1>  -0.9060 
 21 C      -10.5480     0.9530     1.1980 C.3   1 <1>  -0.2400 
 22 C      -10.6180     0.7830    -1.2780 C.3   1 <1>  -0.2400 
 23 C       -8.5630    -2.7220     0.8860 C.3   1 <1>  -0.2400 
 24 C      -10.1880    -3.3380    -0.8850 C.3   1 <1>  -0.2400 
 25 H       -1.0510    -3.2110    -0.7420 H     1 <1>   0.1500 
 26 H       -4.4010     2.7930     0.5860 H     1 <1>   0.0800 
 27 H       -3.4970     2.1390    -0.7760 H     1 <1>   0.0800 
 28 H       -2.7330     2.2860     0.8080 H     1 <1>   0.0800 
 29 H       -3.0930    -2.7110    -2.0310 H     1 <1>   0.1500 
 30 H       -6.0670     0.1720    -0.0230 H     1 <1>   0.4200 
 31 H       -7.6030     0.2280    -1.9910 H     1 <1>   0.0800 
 32 H       -8.2210     1.5160    -0.2210 H     1 <1>   0.0800 
 33 H       -8.0360     0.2590     0.9480 H     1 <1>   0.0800 
 34 H       -7.6890    -2.4410    -1.6760 H     1 <1>   0.0800 
 35 H       -8.9750    -1.5200    -2.3220 H     1 <1>   0.0800 
 36 H      -11.1620    -1.3270    -0.3490 H     1 <1>   0.4500 
 37 H      -10.4410    -1.3510     1.1200 H     1 <1>   0.4500 
 38 H      -10.1150     0.5940     2.1150 H     1 <1>   0.0800 
 39 H      -11.6150     0.8160     1.2340 H     1 <1>   0.0800 
 40 H      -10.3580     2.0110     1.1420 H     1 <1>   0.0800 
 41 H      -10.2570     0.3090    -2.1700 H     1 <1>   0.0800 
 42 H      -10.4260     1.8370    -1.3770 H     1 <1>   0.0800 
 43 H      -11.6850     0.6540    -1.2270 H     1 <1>   0.0800 
 44 H       -7.9680    -1.9580     1.3470 H     1 <1>   0.0800 
 45 H       -7.8900    -3.5020     0.5770 H     1 <1>   0.0800 
 46 H       -9.2280    -3.1390     1.6210 H     1 <1>   0.0800 
 47 H      -10.7690    -3.0140    -1.7310 H     1 <1>   0.0800 
 48 H      -10.8480    -3.7360    -0.1340 H     1 <1>   0.0800 
 49 H       -9.5530    -4.1420    -1.2180 H     1 <1>   0.0800 
@<TRIPOS>BOND
  1   1   2  1   
  2   2   3  ar  
  3   2   4  ar  
  4   3   5  1   
  5   3   6  ar  
  6   4   7  1   
  7   4   8  ar  
  8   5   9  1   
  9   6  10  1   
 10   6  11  ar  
 11   8  11  ar  
 12   8  25  1   
 13   9  26  1   
 14   9  27  1   
 15   9  28  1   
 16  10  12  2   
 17  10  13  2   
 18  10  14  am  
 19  11  29  1   
 20  14  15  1   
 21  14  30  1   
 22  15  16  1   
 23  15  17  1   
 24  15  31  1   
 25  16  18  1   
 26  16  32  1   
 27  16  33  1   
 28  17  19  1   
 29  17  34  1   
 30  17  35  1   
 31  18  20  1   
 32  18  21  1   
 33  18  22  1   
 34  19  20  1   
 35  19  23  1   
 36  19  24  1   
 37  20  36  1   
 38  20  37  1   
 39  21  38  1   
 40  21  39  1   
 41  21  40  1   
 42  22  41  1   
 43  22  42  1   
 44  22  43  1   
 45  23  44  1   
 46  23  45  1   
 47  23  46  1   
 48  24  47  1   
 49  24  48  1   
 50  24  49  1   
@<TRIPOS>SUBSTRUCTURE
  1 ****  14 GROUP 4 **** **** 0

# MOE 2024.06 (io_trps.svl 2023.06)
