@<TRIPOS>MOLECULE
5,6-Dichloro-8-ethoxy-3-(pyrrolidine-1-carbonyl)-chromen-2-one
38 40 1 0 0 
SMALL
USER_CHARGES


@<TRIPOS>ATOM
  1 CL       0.4970     0.0570    -1.0450 Cl    1 <1>  -0.1770 
  2 C        0.4540    -1.6860    -0.8900 C.ar  1 <1>   0.1770 
  3 C       -0.6780    -2.3740    -1.2790 C.ar  1 <1>   0.1770 
  4 C        1.5690    -2.3620    -0.3790 C.ar  1 <1>   0.0280 
  5 CL      -2.0660    -1.5270    -1.9220 Cl    1 <1>  -0.1770 
  6 C       -0.7420    -3.7510    -1.1690 C.ar  1 <1>  -0.1500 
  7 C        1.4970    -3.7600    -0.2740 C.ar  1 <1>   0.0830 
  8 C        2.7760    -1.7210     0.0350 C.2   1 <1>  -0.1780 
  9 C        0.3360    -4.4510    -0.6610 C.ar  1 <1>   0.0830 
 10 O        2.5770    -4.4330     0.1900 O.3   1 <1>  -0.2320 
 11 C        3.8330    -2.4420     0.4980 C.2   1 <1>   0.0290 
 12 O        0.1710    -5.7990    -0.5910 O.3   1 <1>  -0.3620 
 13 C        3.7200    -3.8660     0.5880 C.2   1 <1>   0.7060 
 14 C        5.0560    -1.8290     0.9320 C.2   1 <1>   0.6160 
 15 C        0.7230    -6.5610     0.4600 C.3   1 <1>   0.1200 
 16 O        4.5850    -4.6130     0.9950 O.2   1 <1>  -0.5700 
 17 O        5.0160    -1.0460     1.8620 O.2   1 <1>  -0.5700 
 18 N        6.2570    -2.0350     0.2940 N.am  1 <1>  -0.6600 
 19 C       -0.0700    -7.8600     0.5660 C.3   1 <1>  -0.2400 
 20 C        7.5150    -1.3990     0.7430 C.3   1 <1>   0.1400 
 21 C        6.4840    -2.8710    -0.9050 C.3   1 <1>   0.1400 
 22 C        8.6000    -2.0100    -0.1360 C.3   1 <1>  -0.1600 
 23 C        7.8680    -2.4660    -1.3960 C.3   1 <1>  -0.1600 
 24 H       -1.6290    -4.2750    -1.4770 H     1 <1>   0.1500 
 25 H        2.8370    -0.6460    -0.0190 H     1 <1>   0.1500 
 26 H        0.6540    -5.9960     1.3740 H     1 <1>   0.0800 
 27 H        1.7540    -6.7690     0.2280 H     1 <1>   0.0800 
 28 H       -1.1020    -7.6470     0.7850 H     1 <1>   0.0800 
 29 H        0.3310    -8.4660     1.3580 H     1 <1>   0.0800 
 30 H       -0.0040    -8.4100    -0.3550 H     1 <1>   0.0800 
 31 H        7.6900    -1.5960     1.7880 H     1 <1>   0.0800 
 32 H        7.4470    -0.3360     0.5840 H     1 <1>   0.0800 
 33 H        5.7320    -2.6970    -1.6560 H     1 <1>   0.0800 
 34 H        6.4860    -3.9090    -0.6180 H     1 <1>   0.0800 
 35 H        9.0200    -2.8610     0.3710 H     1 <1>   0.0800 
 36 H        9.3850    -1.3060    -0.3480 H     1 <1>   0.0800 
 37 H        7.7710    -1.6420    -2.0810 H     1 <1>   0.0800 
 38 H        8.3710    -3.2780    -1.8910 H     1 <1>   0.0800 
@<TRIPOS>BOND
  1   1   2  1   
  2   2   3  ar  
  3   2   4  ar  
  4   3   5  1   
  5   3   6  ar  
  6   4   7  ar  
  7   4   8  1   
  8   6   9  ar  
  9   6  24  1   
 10   7   9  ar  
 11   7  10  1   
 12   8  11  2   
 13   8  25  1   
 14   9  12  1   
 15  10  13  1   
 16  11  13  1   
 17  11  14  1   
 18  12  15  1   
 19  13  16  2   
 20  14  17  2   
 21  14  18  am  
 22  15  19  1   
 23  15  26  1   
 24  15  27  1   
 25  18  20  1   
 26  18  21  1   
 27  19  28  1   
 28  19  29  1   
 29  19  30  1   
 30  20  22  1   
 31  20  31  1   
 32  20  32  1   
 33  21  23  1   
 34  21  33  1   
 35  21  34  1   
 36  22  23  1   
 37  22  35  1   
 38  22  36  1   
 39  23  37  1   
 40  23  38  1   
@<TRIPOS>SUBSTRUCTURE
  1 ****  11 GROUP 4 **** **** 0

# MOE 2024.06 (io_trps.svl 2023.06)
