@<TRIPOS>MOLECULE
Cyclohexanecarboxylic acid ethyl-(3-p-tolyl-[1,2,4]oxadiazol-5-ylmethyl)-amide
49 51 1 0 0 
SMALL
USER_CHARGES


@<TRIPOS>ATOM
  1 O        0.2390     0.4430    -1.0120 O.2   1 <1>  -0.5700 
  2 C        0.4290     1.5570    -0.5800 C.2   1 <1>   0.5690 
  3 N        1.6620     2.1540    -0.7180 N.am  1 <1>  -0.6600 
  4 C       -0.7470     2.2710     0.1070 C.3   1 <1>  -0.0190 
  5 C        2.8070     1.3420    -1.2640 C.3   1 <1>   0.3200 
  6 C        1.9760     3.5810    -0.4000 C.3   1 <1>   0.1400 
  7 C       -1.7460     1.2890     0.7570 C.3   1 <1>  -0.1600 
  8 C       -1.4900     3.1940    -0.8800 C.3   1 <1>  -0.1600 
  9 C        4.0650     1.4460    -0.4120 C.2   1 <1>   0.2980 
 10 C        2.2940     4.3520    -1.6800 C.3   1 <1>  -0.2400 
 11 C       -2.9020     2.0280     1.4450 C.3   1 <1>  -0.1600 
 12 C       -2.6500     3.9370    -0.2010 C.3   1 <1>  -0.1600 
 13 O        4.0440     0.9470     0.7950 O.3   1 <1>  -0.0190 
 14 N        5.1600     1.9890    -0.7580 N.2   1 <1>  -0.5650 
 15 C       -3.6260     2.9560     0.4610 C.3   1 <1>  -0.1600 
 16 N        5.2270     1.1960     1.2600 N.2   1 <1>  -0.4100 
 17 C        5.8930     1.8100     0.3470 C.2   1 <1>   0.4620 
 18 C        7.2670     2.2720     0.4620 C.ar  1 <1>   0.0540 
 19 C        7.9120     2.9300    -0.5860 C.ar  1 <1>  -0.1500 
 20 C        8.0010     2.0770     1.6330 C.ar  1 <1>  -0.1500 
 21 C        9.2190     3.3690    -0.4730 C.ar  1 <1>  -0.1500 
 22 C        9.3070     2.5140     1.7520 C.ar  1 <1>  -0.1500 
 23 C        9.9270     3.1630     0.6980 C.ar  1 <1>  -0.1440 
 24 C       11.3600     3.6450     0.8270 C.3   1 <1>  -0.0970 
 25 H       -0.3530     2.8650     0.9100 H     1 <1>   0.0800 
 26 H        3.0300     1.6780    -2.2600 H     1 <1>   0.0800 
 27 H        2.5450     0.3010    -1.3290 H     1 <1>   0.0800 
 28 H        2.8120     3.6310     0.2770 H     1 <1>   0.0800 
 29 H        1.1480     4.0610     0.0860 H     1 <1>   0.0800 
 30 H       -1.2310     0.6770     1.4770 H     1 <1>   0.0800 
 31 H       -2.1480     0.6340     0.0020 H     1 <1>   0.0800 
 32 H       -1.8750     2.6000    -1.6910 H     1 <1>   0.0800 
 33 H       -0.8080     3.9120    -1.3000 H     1 <1>   0.0800 
 34 H        3.2120     4.0060    -2.1180 H     1 <1>   0.0800 
 35 H        2.4120     5.3950    -1.4480 H     1 <1>   0.0800 
 36 H        1.4930     4.2490    -2.3900 H     1 <1>   0.0800 
 37 H       -2.5190     2.6080     2.2680 H     1 <1>   0.0800 
 38 H       -3.6000     1.3120     1.8430 H     1 <1>   0.0800 
 39 H       -3.1750     4.5280    -0.9310 H     1 <1>   0.0800 
 40 H       -2.2580     4.6070     0.5460 H     1 <1>   0.0800 
 41 H       -4.3940     3.5040     0.9790 H     1 <1>   0.0800 
 42 H       -4.1030     2.3620    -0.3010 H     1 <1>   0.0800 
 43 H        7.3840     3.1020    -1.5080 H     1 <1>   0.1500 
 44 H        7.5410     1.5740     2.4660 H     1 <1>   0.1500 
 45 H        9.6830     3.8740    -1.3020 H     1 <1>   0.1500 
 46 H        9.8410     2.3470     2.6720 H     1 <1>   0.1500 
 47 H       11.9120     3.0090     1.4950 H     1 <1>   0.0800 
 48 H       11.3730     4.6490     1.2110 H     1 <1>   0.0800 
 49 H       11.8480     3.6320    -0.1320 H     1 <1>   0.0800 
@<TRIPOS>BOND
  1   1   2  2   
  2   2   3  am  
  3   2   4  1   
  4   3   5  1   
  5   3   6  1   
  6   4   7  1   
  7   4   8  1   
  8   4  25  1   
  9   5   9  1   
 10   5  26  1   
 11   5  27  1   
 12   6  10  1   
 13   6  28  1   
 14   6  29  1   
 15   7  11  1   
 16   7  30  1   
 17   7  31  1   
 18   8  12  1   
 19   8  32  1   
 20   8  33  1   
 21   9  13  1   
 22   9  14  2   
 23  10  34  1   
 24  10  35  1   
 25  10  36  1   
 26  11  15  1   
 27  11  37  1   
 28  11  38  1   
 29  12  15  1   
 30  12  39  1   
 31  12  40  1   
 32  13  16  1   
 33  14  17  1   
 34  15  41  1   
 35  15  42  1   
 36  16  17  2   
 37  17  18  1   
 38  18  19  ar  
 39  18  20  ar  
 40  19  21  ar  
 41  19  43  1   
 42  20  22  ar  
 43  20  44  1   
 44  21  23  ar  
 45  21  45  1   
 46  22  23  ar  
 47  22  46  1   
 48  23  24  1   
 49  24  47  1   
 50  24  48  1   
 51  24  49  1   
@<TRIPOS>SUBSTRUCTURE
  1 ****   9 GROUP 4 **** **** 0

# MOE 2024.06 (io_trps.svl 2023.06)
