@<TRIPOS>MOLECULE
N-[1-(4-Ethyl-5-mercapto-4H-[1,2,4]triazol-3-yl)-2-hydroxy-ethyl]-4-methoxy-benz
40 41 1 0 0 
SMALL
USER_CHARGES


@<TRIPOS>ATOM
  1 S        0.2020     1.9580     0.2660 S.3   1 <1>  -0.9360 
  2 C       -1.2660     2.2910     0.8660 C.cat 1 <1>   0.7360 
  3 N       -1.6600     2.0080     2.0870 N.pl3 1 <1>  -0.3930 
  4 N       -2.2560     2.8920     0.2350 N.pl3 1 <1>  -0.7640 
  5 N       -2.9410     2.4320     2.2910 N.2   1 <1>  -0.2600 
  6 C       -3.2750     2.9590     1.1630 C.2   1 <1>   0.4850 
  7 C       -2.1980     3.3420    -1.1690 C.3   1 <1>   0.3540 
  8 C       -4.6250     3.6240     0.8550 C.3   1 <1>   0.3880 
  9 C       -2.7990     2.2640    -2.0660 C.3   1 <1>  -0.2400 
 10 N       -4.4550     5.1000     0.6590 N.am  1 <1>  -0.7300 
 11 C       -5.6780     3.3450     1.9460 C.3   1 <1>   0.1200 
 12 C       -5.2240     5.8640    -0.1640 C.2   1 <1>   0.5440 
 13 O       -6.9340     3.8010     1.5570 O.3   1 <1>  -0.6800 
 14 O       -6.1840     5.3230    -0.6740 O.2   1 <1>  -0.5700 
 15 C       -4.9210     7.2640    -0.4020 C.ar  1 <1>   0.0860 
 16 C       -5.9130     8.1480    -0.8330 C.ar  1 <1>  -0.1500 
 17 C       -3.6380     7.7870    -0.2190 C.ar  1 <1>  -0.1500 
 18 C       -5.6480     9.4860    -1.0610 C.ar  1 <1>  -0.1500 
 19 C       -3.3660     9.1230    -0.4430 C.ar  1 <1>  -0.1500 
 20 C       -4.3650     9.9850    -0.8640 C.ar  1 <1>   0.0820 
 21 O       -4.0180    11.2760    -1.0600 O.3   1 <1>  -0.3620 
 22 C       -4.9530    12.2390    -1.4930 C.3   1 <1>   0.0400 
 23 H       -1.0350     1.5330     2.7390 H     1 <1>   0.4500 
 24 H       -1.1730     3.5190    -1.4550 H     1 <1>   0.0800 
 25 H       -2.7380     4.2650    -1.2850 H     1 <1>   0.0800 
 26 H       -4.9870     3.1870    -0.0580 H     1 <1>   0.0800 
 27 H       -2.2380     1.3510    -1.9610 H     1 <1>   0.0800 
 28 H       -2.7420     2.5780    -3.0920 H     1 <1>   0.0800 
 29 H       -3.8280     2.0860    -1.8190 H     1 <1>   0.0800 
 30 H       -3.7550     5.5480     1.2540 H     1 <1>   0.3700 
 31 H       -5.4100     3.8380     2.8650 H     1 <1>   0.0800 
 32 H       -5.7630     2.2880     2.1300 H     1 <1>   0.0800 
 33 H       -6.8560     4.4470     0.8080 H     1 <1>   0.4000 
 34 H       -6.9110     7.7740    -0.9910 H     1 <1>   0.1500 
 35 H       -2.8330     7.1470     0.0960 H     1 <1>   0.1500 
 36 H       -6.4480    10.1230    -1.3900 H     1 <1>   0.1500 
 37 H       -2.3740     9.5140    -0.2970 H     1 <1>   0.1500 
 38 H       -4.4450    13.1830    -1.5750 H     1 <1>   0.0800 
 39 H       -5.7430    12.3100    -0.7670 H     1 <1>   0.0800 
 40 H       -5.3360    11.9460    -2.4540 H     1 <1>   0.0800 
@<TRIPOS>BOND
  1   1   2  1   
  2   2   3  ar  
  3   2   4  ar  
  4   3   5  1   
  5   3  23  1   
  6   4   6  1   
  7   4   7  1   
  8   5   6  2   
  9   6   8  1   
 10   7   9  1   
 11   7  24  1   
 12   7  25  1   
 13   8  10  1   
 14   8  11  1   
 15   8  26  1   
 16   9  27  1   
 17   9  28  1   
 18   9  29  1   
 19  10  12  am  
 20  10  30  1   
 21  11  13  1   
 22  11  31  1   
 23  11  32  1   
 24  12  14  2   
 25  12  15  1   
 26  13  33  1   
 27  15  16  ar  
 28  15  17  ar  
 29  16  18  ar  
 30  16  34  1   
 31  17  19  ar  
 32  17  35  1   
 33  18  20  ar  
 34  18  36  1   
 35  19  20  ar  
 36  19  37  1   
 37  20  21  1   
 38  21  22  1   
 39  22  38  1   
 40  22  39  1   
 41  22  40  1   
@<TRIPOS>SUBSTRUCTURE
  1 ****  10 GROUP 4 **** **** 0

# MOE 2024.06 (io_trps.svl 2023.06)
