@<TRIPOS>MOLECULE
(4-Phenyl-piperidin-1-yl)-(2,3,4-trimethoxy-phenyl)-methanone
51 53 1 0 0 
SMALL
USER_CHARGES


@<TRIPOS>ATOM
  1 O        1.3190     0.6430    -1.7050 O.2   1 <1>  -0.5700 
  2 C        2.2210     1.2170    -1.1220 C.2   1 <1>   0.5440 
  3 N        3.5110     0.7350    -1.2360 N.am  1 <1>  -0.6600 
  4 C        1.8950     2.3650    -0.3070 C.ar  1 <1>   0.0860 
  5 C        4.6920     1.3860    -0.6020 C.3   1 <1>   0.1400 
  6 C        3.8330    -0.4750    -2.0430 C.3   1 <1>   0.1400 
  7 C        2.2260     3.6690    -0.6910 C.ar  1 <1>   0.0820 
  8 C        1.2240     2.1920     0.9020 C.ar  1 <1>  -0.1500 
  9 C        5.4150     0.3750     0.2910 C.3   1 <1>  -0.1600 
 10 C        4.5510    -1.5010    -1.1630 C.3   1 <1>  -0.1600 
 11 O        2.8840     3.8640    -1.8580 O.3   1 <1>  -0.3620 
 12 C        1.9110     4.7620     0.1180 C.ar  1 <1>   0.0820 
 13 C        0.8970     3.2690     1.7020 C.ar  1 <1>  -0.1500 
 14 C        5.7910    -0.8930    -0.4900 C.3   1 <1>   0.0630 
 15 C        2.0740     4.0250    -2.9990 C.3   1 <1>   0.0400 
 16 O        2.2850     6.0090    -0.2820 O.3   1 <1>  -0.3630 
 17 C        1.2230     4.5610     1.3210 C.ar  1 <1>   0.0820 
 18 C        6.4910    -1.9080     0.4120 C.ar  1 <1>  -0.1440 
 19 C        3.6320     6.3420    -0.0370 C.3   1 <1>   0.0400 
 20 O        0.8360     5.5380     2.1820 O.3   1 <1>  -0.3630 
 21 C        5.8410    -2.4670     1.5040 C.ar  1 <1>  -0.1500 
 22 C        7.8000    -2.2840     0.1460 C.ar  1 <1>  -0.1500 
 23 C        0.4260     6.8030     1.7100 C.3   1 <1>   0.0400 
 24 C        6.4880    -3.3850     2.3150 C.ar  1 <1>  -0.1500 
 25 C        8.4480    -3.2010     0.9550 C.ar  1 <1>  -0.1500 
 26 C        7.7930    -3.7520     2.0410 C.ar  1 <1>  -0.1500 
 27 H        4.4010     2.2350    -0.0110 H     1 <1>   0.0800 
 28 H        5.3540     1.7340    -1.3770 H     1 <1>   0.0800 
 29 H        4.4640    -0.1870    -2.8660 H     1 <1>   0.0800 
 30 H        2.9390    -0.9150    -2.4490 H     1 <1>   0.0800 
 31 H        0.9550     1.1950     1.2060 H     1 <1>   0.1500 
 32 H        4.7740     0.1280     1.1170 H     1 <1>   0.0800 
 33 H        6.3060     0.8260     0.6900 H     1 <1>   0.0800 
 34 H        4.8450    -2.3420    -1.7640 H     1 <1>   0.0800 
 35 H        3.8580    -1.8560    -0.4210 H     1 <1>   0.0800 
 36 H        0.3770     3.1170     2.6320 H     1 <1>   0.1500 
 37 H        6.4730    -0.6030    -1.2710 H     1 <1>   0.0800 
 38 H        2.7150     4.1790    -3.8490 H     1 <1>   0.0800 
 39 H        1.4380     4.8800    -2.8550 H     1 <1>   0.0800 
 40 H        1.4840     3.1360    -3.1390 H     1 <1>   0.0800 
 41 H        3.7910     7.3560    -0.3570 H     1 <1>   0.0800 
 42 H        4.2660     5.6770    -0.5960 H     1 <1>   0.0800 
 43 H        3.8260     6.2510     1.0170 H     1 <1>   0.0800 
 44 H        4.8270    -2.1930     1.7320 H     1 <1>   0.1500 
 45 H        8.3260    -1.8660    -0.6940 H     1 <1>   0.1500 
 46 H       -0.1790     7.2640     2.4700 H     1 <1>   0.0800 
 47 H       -0.1490     6.6740     0.8090 H     1 <1>   0.0800 
 48 H        1.2960     7.4050     1.5230 H     1 <1>   0.0800 
 49 H        5.9750    -3.8120     3.1590 H     1 <1>   0.1500 
 50 H        9.4640    -3.4850     0.7400 H     1 <1>   0.1500 
 51 H        8.2960    -4.4650     2.6710 H     1 <1>   0.1500 
@<TRIPOS>BOND
  1   1   2  2   
  2   2   3  am  
  3   2   4  1   
  4   3   5  1   
  5   3   6  1   
  6   4   7  ar  
  7   4   8  ar  
  8   5   9  1   
  9   5  27  1   
 10   5  28  1   
 11   6  10  1   
 12   6  29  1   
 13   6  30  1   
 14   7  11  1   
 15   7  12  ar  
 16   8  13  ar  
 17   8  31  1   
 18   9  14  1   
 19   9  32  1   
 20   9  33  1   
 21  10  14  1   
 22  10  34  1   
 23  10  35  1   
 24  11  15  1   
 25  12  16  1   
 26  12  17  ar  
 27  13  17  ar  
 28  13  36  1   
 29  14  18  1   
 30  14  37  1   
 31  15  38  1   
 32  15  39  1   
 33  15  40  1   
 34  16  19  1   
 35  17  20  1   
 36  18  21  ar  
 37  18  22  ar  
 38  19  41  1   
 39  19  42  1   
 40  19  43  1   
 41  20  23  1   
 42  21  24  ar  
 43  21  44  1   
 44  22  25  ar  
 45  22  45  1   
 46  23  46  1   
 47  23  47  1   
 48  23  48  1   
 49  24  26  ar  
 50  24  49  1   
 51  25  26  ar  
 52  25  50  1   
 53  26  51  1   
@<TRIPOS>SUBSTRUCTURE
  1 ****   5 GROUP 4 **** **** 0

# MOE 2024.06 (io_trps.svl 2023.06)
