@<TRIPOS>MOLECULE
3-Cyclopentyl-N-(3-phenyl-[1,2,4]oxadiazol-5-ylmethyl)-propionamide
43 45 1 0 0 
SMALL
USER_CHARGES


@<TRIPOS>ATOM
  1 O        0.2850     0.9320    -2.7340 O.2   1 <1>  -0.5700 
  2 C        0.4540     1.6520    -1.7830 C.2   1 <1>   0.5690 
  3 N        1.6050     1.6350    -1.0730 N.am  1 <1>  -0.7300 
  4 C       -0.6460     2.6060    -1.3620 C.3   1 <1>  -0.0990 
  5 C        2.7770     0.7850    -1.4070 C.3   1 <1>   0.3200 
  6 C       -1.3970     2.1050    -0.1160 C.3   1 <1>  -0.1600 
  7 C        4.0710     1.5800    -1.3390 C.2   1 <1>   0.2980 
  8 C       -2.4750     3.0930     0.3560 C.3   1 <1>  -0.0800 
  9 O        4.3130     2.4590    -2.2760 O.3   1 <1>  -0.0190 
 10 N        4.9630     1.4820    -0.4400 N.2   1 <1>  -0.5650 
 11 C       -3.1960     2.6140     1.6120 C.3   1 <1>  -0.1600 
 12 C       -3.6100     3.3050    -0.6450 C.3   1 <1>  -0.1600 
 13 N        5.4600     2.9640    -1.9450 N.2   1 <1>  -0.4100 
 14 C        5.8500     2.3910    -0.8620 C.2   1 <1>   0.4620 
 15 C       -4.4970     3.4150     1.6420 C.3   1 <1>  -0.1600 
 16 C       -4.8000     3.7910     0.1870 C.3   1 <1>  -0.1600 
 17 C        7.0910     2.6670    -0.1550 C.ar  1 <1>   0.0540 
 18 C        7.4380     1.9890     1.0160 C.ar  1 <1>  -0.1500 
 19 C        7.9900     3.6290    -0.6210 C.ar  1 <1>  -0.1500 
 20 C        8.6180     2.2550     1.6860 C.ar  1 <1>  -0.1500 
 21 C        9.1720     3.9000     0.0440 C.ar  1 <1>  -0.1500 
 22 C        9.4890     3.2120     1.2010 C.ar  1 <1>  -0.1500 
 23 H        1.7230     2.2520    -0.2680 H     1 <1>   0.3700 
 24 H       -1.3320     2.7080    -2.1840 H     1 <1>   0.0800 
 25 H       -0.2140     3.5700    -1.1710 H     1 <1>   0.0800 
 26 H        2.6690     0.3710    -2.3940 H     1 <1>   0.0800 
 27 H        2.8280    -0.0290    -0.7050 H     1 <1>   0.0800 
 28 H       -0.6940     1.9530     0.6850 H     1 <1>   0.0800 
 29 H       -1.8490     1.1530    -0.3380 H     1 <1>   0.0800 
 30 H       -2.0230     4.0480     0.5710 H     1 <1>   0.0800 
 31 H       -2.6090     2.7680     2.5010 H     1 <1>   0.0800 
 32 H       -3.4300     1.5670     1.5220 H     1 <1>   0.0800 
 33 H       -3.8670     2.3670    -1.1080 H     1 <1>   0.0800 
 34 H       -3.3460     4.0130    -1.4110 H     1 <1>   0.0800 
 35 H       -4.3560     4.3120     2.2210 H     1 <1>   0.0800 
 36 H       -5.2970     2.8420     2.0780 H     1 <1>   0.0800 
 37 H       -5.7110     3.3290    -0.1530 H     1 <1>   0.0800 
 38 H       -4.9000     4.8600     0.1020 H     1 <1>   0.0800 
 39 H        6.7730     1.2400     1.4090 H     1 <1>   0.1500 
 40 H        7.7600     4.1740    -1.5200 H     1 <1>   0.1500 
 41 H        8.8590     1.7160     2.5860 H     1 <1>   0.1500 
 42 H        9.8470     4.6460    -0.3390 H     1 <1>   0.1500 
 43 H       10.4090     3.4210     1.7200 H     1 <1>   0.1500 
@<TRIPOS>BOND
  1   1   2  2   
  2   2   3  am  
  3   2   4  1   
  4   3   5  1   
  5   3  23  1   
  6   4   6  1   
  7   4  24  1   
  8   4  25  1   
  9   5   7  1   
 10   5  26  1   
 11   5  27  1   
 12   6   8  1   
 13   6  28  1   
 14   6  29  1   
 15   7   9  1   
 16   7  10  2   
 17   8  11  1   
 18   8  12  1   
 19   8  30  1   
 20   9  13  1   
 21  10  14  1   
 22  11  15  1   
 23  11  31  1   
 24  11  32  1   
 25  12  16  1   
 26  12  33  1   
 27  12  34  1   
 28  13  14  2   
 29  14  17  1   
 30  15  16  1   
 31  15  35  1   
 32  15  36  1   
 33  16  37  1   
 34  16  38  1   
 35  17  18  ar  
 36  17  19  ar  
 37  18  20  ar  
 38  18  39  1   
 39  19  21  ar  
 40  19  40  1   
 41  20  22  ar  
 42  20  41  1   
 43  21  22  ar  
 44  21  42  1   
 45  22  43  1   
@<TRIPOS>SUBSTRUCTURE
  1 ****   3 GROUP 4 **** **** 0

# MOE 2024.06 (io_trps.svl 2023.06)
