@<TRIPOS>MOLECULE
4-(3,4-Dimethoxy-phenyl)-2,7-dimethyl-5-oxo-1,4,5,6,7,8-hexahydro-quinoline-3-ca
59 62 1 0 0 
SMALL
USER_CHARGES


@<TRIPOS>ATOM
  1 O        0.1920    -1.1230    -2.0520 O.2   1 <1>  -0.5700 
  2 C        0.3080    -1.9370    -1.1660 C.2   1 <1>   0.4950 
  3 C        1.5530    -2.3920    -0.6440 C.2   1 <1>  -0.1240 
  4 C       -0.9710    -2.5520    -0.6200 C.3   1 <1>  -0.0990 
  5 C        1.6610    -3.3940     0.2640 C.2   1 <1>  -0.0380 
  6 C        2.8140    -1.6980    -1.1640 C.3   1 <1>   0.3400 
  7 C       -0.7880    -3.1240     0.7980 C.3   1 <1>  -0.0800 
  8 N        2.8800    -3.8760     0.6760 N.pl3 1 <1>  -0.6000 
  9 C        0.4310    -4.0600     0.8620 C.3   1 <1>  -0.0220 
 10 C        4.1100    -2.3910    -0.7330 C.2   1 <1>  -0.1240 
 11 C        2.8570    -0.2620    -0.6340 C.ar  1 <1>  -0.1440 
 12 C       -2.0610    -3.8410     1.2660 C.3   1 <1>  -0.2400 
 13 C        4.0720    -3.4250     0.1500 C.2   1 <1>  -0.0380 
 14 C        5.2700    -1.7940    -1.3140 C.2   1 <1>   0.6160 
 15 C        3.0580    -0.0240     0.7190 C.ar  1 <1>  -0.1500 
 16 C        2.7220     0.8170    -1.4970 C.ar  1 <1>  -0.1500 
 17 C        5.2860    -4.1960     0.6440 C.3   1 <1>  -0.1020 
 18 O        5.3600    -1.6500    -2.5180 O.2   1 <1>  -0.5700 
 19 N        6.2630    -1.3540    -0.4810 N.am  1 <1>  -0.5470 
 20 C        3.1500     1.2680     1.2050 C.ar  1 <1>   0.0820 
 21 C        2.7850     2.1130    -1.0150 C.ar  1 <1>  -0.1500 
 22 C        7.4640    -0.7110    -0.6660 C.ar  1 <1>   0.4270 
 23 O        3.4190     1.4210     2.5240 O.3   1 <1>  -0.3620 
 24 C        2.9850     2.3500     0.3340 C.ar  1 <1>   0.0820 
 25 N        8.0680    -0.4340     0.4820 N.ar  1 <1>  -0.6200 
 26 C        8.0020    -0.3810    -1.9100 C.ar  1 <1>  -0.1500 
 27 C        4.6900     1.9510     2.8290 C.3   1 <1>   0.0400 
 28 O        3.0100     3.6410     0.7480 O.3   1 <1>  -0.3630 
 29 C        9.2330     0.1870     0.3910 C.ar  1 <1>   0.1600 
 30 C        9.2140     0.2650    -1.9890 C.ar  1 <1>  -0.1500 
 31 C        1.9730     4.0370     1.6180 C.3   1 <1>   0.0400 
 32 C        9.8420     0.5540    -0.7960 C.ar  1 <1>  -0.1500 
 33 H       -1.2780    -3.3280    -1.2960 H     1 <1>   0.0800 
 34 H       -1.7370    -1.7970    -0.6090 H     1 <1>   0.0800 
 35 H        2.7730    -1.6920    -2.2410 H     1 <1>   0.0800 
 36 H       -0.6030    -2.2970     1.4640 H     1 <1>   0.0800 
 37 H        2.9060    -4.6440     1.3560 H     1 <1>   0.4000 
 38 H        0.6210    -4.3100     1.8920 H     1 <1>   0.0800 
 39 H        0.2340    -4.9710     0.3250 H     1 <1>   0.0800 
 40 H       -2.2870    -4.6760     0.6260 H     1 <1>   0.0800 
 41 H       -2.8980    -3.1640     1.2520 H     1 <1>   0.0800 
 42 H       -1.9390    -4.2020     2.2720 H     1 <1>   0.0800 
 43 H        3.1580    -0.8440     1.4090 H     1 <1>   0.1500 
 44 H        2.5620     0.6510    -2.5490 H     1 <1>   0.1500 
 45 H        5.1180    -5.2510     0.5270 H     1 <1>   0.0800 
 46 H        5.4570    -3.9850     1.6840 H     1 <1>   0.0800 
 47 H        6.1720    -3.9470     0.0910 H     1 <1>   0.0800 
 48 H        6.0490    -1.4370     0.5080 H     1 <1>   0.3700 
 49 H        2.6740     2.9460    -1.6850 H     1 <1>   0.1500 
 50 H        7.4770    -0.6260    -2.8120 H     1 <1>   0.1500 
 51 H        4.8170     1.9310     3.8960 H     1 <1>   0.0800 
 52 H        4.7480     2.9630     2.4710 H     1 <1>   0.0800 
 53 H        5.4430     1.3450     2.3550 H     1 <1>   0.0800 
 54 H        9.7330     0.4180     1.3160 H     1 <1>   0.1500 
 55 H        9.6500     0.5310    -2.9360 H     1 <1>   0.1500 
 56 H        2.0390     5.1010     1.7570 H     1 <1>   0.0800 
 57 H        2.0890     3.5360     2.5620 H     1 <1>   0.0800 
 58 H        1.0290     3.7800     1.1710 H     1 <1>   0.0800 
 59 H       10.7910     1.0580    -0.7860 H     1 <1>   0.1500 
@<TRIPOS>BOND
  1   1   2  2   
  2   2   3  1   
  3   2   4  1   
  4   3   5  2   
  5   3   6  1   
  6   4   7  1   
  7   4  33  1   
  8   4  34  1   
  9   5   8  1   
 10   5   9  1   
 11   6  10  1   
 12   6  11  1   
 13   6  35  1   
 14   7   9  1   
 15   7  12  1   
 16   7  36  1   
 17   8  13  1   
 18   8  37  1   
 19   9  38  1   
 20   9  39  1   
 21  10  13  2   
 22  10  14  1   
 23  11  15  ar  
 24  11  16  ar  
 25  12  40  1   
 26  12  41  1   
 27  12  42  1   
 28  13  17  1   
 29  14  18  2   
 30  14  19  am  
 31  15  20  ar  
 32  15  43  1   
 33  16  21  ar  
 34  16  44  1   
 35  17  45  1   
 36  17  46  1   
 37  17  47  1   
 38  19  22  1   
 39  19  48  1   
 40  20  23  1   
 41  20  24  ar  
 42  21  24  ar  
 43  21  49  1   
 44  22  25  ar  
 45  22  26  ar  
 46  23  27  1   
 47  24  28  1   
 48  25  29  ar  
 49  26  30  ar  
 50  26  50  1   
 51  27  51  1   
 52  27  52  1   
 53  27  53  1   
 54  28  31  1   
 55  29  32  ar  
 56  29  54  1   
 57  30  32  ar  
 58  30  55  1   
 59  31  56  1   
 60  31  57  1   
 61  31  58  1   
 62  32  59  1   
@<TRIPOS>SUBSTRUCTURE
  1 ****  11 GROUP 4 **** **** 0

# MOE 2024.06 (io_trps.svl 2023.06)
