@<TRIPOS>MOLECULE
8-(2,5-Dimethoxy-phenyl)-1-methyl-3-(2-methyl-allyl)-7,8-dihydro-1H,6H-imidazo[2
53 56 1 0 0 
SMALL
USER_CHARGES


@<TRIPOS>ATOM
  1 O       -0.2090     1.0960    -1.2690 O.2   1 <1>  -0.5740 
  2 C        0.8710     1.1070    -0.7140 C.2   1 <1>   0.6860 
  3 N        1.2330     2.1770     0.0950 N.am  1 <1>  -0.4250 
  4 N        1.7470     0.0430    -0.8940 N.am  1 <1>  -0.4410 
  5 C        2.4230     2.1790     0.8050 C.2   1 <1>   0.7000 
  6 C        0.4150     3.4150     0.0840 C.3   1 <1>   0.2720 
  7 C        2.9720     0.0950    -0.2590 C.2   1 <1>   0.4210 
  8 C        1.3820    -1.1100    -1.7690 C.3   1 <1>   0.0530 
  9 O        2.6840     3.0510     1.6170 O.2   1 <1>  -0.5740 
 10 C        3.3330     1.1040     0.5690 C.2   1 <1>   0.2710 
 11 C        1.0230     4.4070    -0.9020 C.2   1 <1>  -0.2830 
 12 N        4.0060    -0.7960    -0.3420 N.pl3 1 <1>  -0.7030 
 13 N        4.6280     0.7930     0.9950 N.pl3 1 <1>  -0.7670 
 14 C        1.7260     5.4760    -0.5140 C.2   1 <1>  -0.3060 
 15 C        0.7570     4.0990    -2.3690 C.3   1 <1>  -0.1090 
 16 C        4.9870    -0.3280     0.4190 C.cat 1 <1>   1.0690 
 17 C        5.7090     1.3750     1.8050 C.3   1 <1>   0.3480 
 18 N        6.2290    -0.7160     0.7230 N.pl3 1 <1>  -0.5790 
 19 C        6.8290     0.3200     1.6240 C.3   1 <1>   0.1610 
 20 C        6.9500    -1.8270     0.2300 C.ar  1 <1>   0.3050 
 21 C        6.9410    -2.1800    -1.1300 C.ar  1 <1>   0.0750 
 22 C        7.6900    -2.5930     1.1210 C.ar  1 <1>  -0.1570 
 23 O        6.2150    -1.4150    -2.0020 O.3   1 <1>  -0.3680 
 24 C        7.6640    -3.2860    -1.5630 C.ar  1 <1>  -0.1570 
 25 C        8.4130    -3.6950     0.6820 C.ar  1 <1>   0.0750 
 26 C        6.5220    -1.4200    -3.3840 C.3   1 <1>   0.0320 
 27 C        8.3940    -4.0340    -0.6590 C.ar  1 <1>  -0.1570 
 28 O        9.1560    -4.4870     1.4950 O.3   1 <1>  -0.3680 
 29 C        9.2340    -4.2600     2.8860 C.3   1 <1>   0.0320 
 30 H        0.4060     3.8450     1.0720 H     1 <1>   0.0730 
 31 H       -0.6070     3.2050    -0.1810 H     1 <1>   0.0730 
 32 H        0.3110    -1.2260    -1.8110 H     1 <1>   0.0730 
 33 H        1.8010    -2.0220    -1.3840 H     1 <1>   0.0730 
 34 H        1.7480    -0.9380    -2.7660 H     1 <1>   0.0730 
 35 H        4.1320    -1.5910    -0.9680 H     1 <1>   0.4450 
 36 H        2.1580     6.1950    -1.1880 H     1 <1>   0.1430 
 37 H        1.9310     5.7240     0.5140 H     1 <1>   0.1430 
 38 H        1.2200     3.1720    -2.6550 H     1 <1>   0.0730 
 39 H        1.1500     4.8790    -2.9970 H     1 <1>   0.0730 
 40 H       -0.3020     4.0240    -2.5470 H     1 <1>   0.0730 
 41 H        5.4110     1.4660     2.8360 H     1 <1>   0.0730 
 42 H        6.0040     2.3370     1.4190 H     1 <1>   0.0730 
 43 H        7.1000    -0.1070     2.5730 H     1 <1>   0.0730 
 44 H        7.6980     0.7610     1.1650 H     1 <1>   0.0730 
 45 H        7.6930    -2.3300     2.1590 H     1 <1>   0.1430 
 46 H        7.6750    -3.5910    -2.5940 H     1 <1>   0.1430 
 47 H        5.9700    -0.6270    -3.8570 H     1 <1>   0.0730 
 48 H        6.2310    -2.3650    -3.8090 H     1 <1>   0.0730 
 49 H        7.5770    -1.2530    -3.5120 H     1 <1>   0.0730 
 50 H        8.9570    -4.8900    -0.9880 H     1 <1>   0.1430 
 51 H        9.8680    -5.0180     3.3110 H     1 <1>   0.0730 
 52 H        8.2480    -4.3330     3.3090 H     1 <1>   0.0730 
 53 H        9.6630    -3.2900     3.0600 H     1 <1>   0.0730 
@<TRIPOS>BOND
  1   1   2  2   
  2   2   3  am  
  3   2   4  am  
  4   3   5  am  
  5   3   6  1   
  6   4   7  1   
  7   4   8  1   
  8   5   9  2   
  9   5  10  1   
 10   6  11  1   
 11   6  30  1   
 12   6  31  1   
 13   7  10  2   
 14   7  12  1   
 15   8  32  1   
 16   8  33  1   
 17   8  34  1   
 18  10  13  1   
 19  11  14  2   
 20  11  15  1   
 21  12  16  ar  
 22  12  35  1   
 23  13  16  ar  
 24  13  17  1   
 25  14  36  1   
 26  14  37  1   
 27  15  38  1   
 28  15  39  1   
 29  15  40  1   
 30  16  18  ar  
 31  17  19  1   
 32  17  41  1   
 33  17  42  1   
 34  18  19  1   
 35  18  20  1   
 36  19  43  1   
 37  19  44  1   
 38  20  21  ar  
 39  20  22  ar  
 40  21  23  1   
 41  21  24  ar  
 42  22  25  ar  
 43  22  45  1   
 44  23  26  1   
 45  24  27  ar  
 46  24  46  1   
 47  25  27  ar  
 48  25  28  1   
 49  26  47  1   
 50  26  48  1   
 51  26  49  1   
 52  27  50  1   
 53  28  29  1   
 54  29  51  1   
 55  29  52  1   
 56  29  53  1   
@<TRIPOS>SUBSTRUCTURE
  1 ****  16 GROUP 4 **** **** 0

# MOE 2024.06 (io_trps.svl 2023.06)
