@<TRIPOS>MOLECULE
5-[(1-Adamantan-1-yl-ethylamino)-methyl]-1,3-dimethyl-1,3-dihydro-benzoimidazol-
58 62 1 0 0 
SMALL
USER_CHARGES


@<TRIPOS>ATOM
  1 O       -0.8680     0.6830    -0.5570 O.2   1 <1>  -0.5700 
  2 C       -2.0220     0.9360    -0.2430 C.2   1 <1>   0.6900 
  3 N       -2.8400     0.1130     0.4850 N.am  1 <1>  -0.4770 
  4 N       -2.6930     2.0850    -0.5640 N.am  1 <1>  -0.4770 
  5 C       -4.0580     0.7660     0.6300 C.ar  1 <1>   0.1170 
  6 C       -2.4510    -1.1930     1.0620 C.3   1 <1>   0.0600 
  7 C       -3.9660     1.9860    -0.0190 C.ar  1 <1>   0.1170 
  8 C       -2.1400     3.2320    -1.3170 C.3   1 <1>   0.0600 
  9 C       -5.2290     0.3890     1.2700 C.ar  1 <1>  -0.1500 
 10 C       -5.0440     2.8580    -0.0370 C.ar  1 <1>  -0.1500 
 11 C       -6.3160     1.2520     1.2470 C.ar  1 <1>  -0.1440 
 12 C       -6.2160     2.4850     0.5980 C.ar  1 <1>  -0.1500 
 13 C       -7.6150     0.8530     1.9100 C.3   1 <1>   0.4860 
 14 N       -8.3940     0.1360     0.8830 N.4   1 <1>  -0.9060 
 15 C       -9.6780    -0.4320     1.3380 C.3   1 <1>   0.4230 
 16 C      -10.0870    -1.6220     0.4150 C.3   1 <1>   0.0000 
 17 C      -10.6860     0.7220     1.4100 C.3   1 <1>  -0.2400 
 18 C      -11.4490    -2.2200     0.8610 C.3   1 <1>  -0.1600 
 19 C      -10.2080    -1.2190    -1.0820 C.3   1 <1>  -0.1600 
 20 C       -9.0230    -2.7520     0.5300 C.3   1 <1>  -0.1600 
 21 C      -11.8370    -3.4350    -0.0010 C.3   1 <1>  -0.0800 
 22 C      -10.5880    -2.4340    -1.9490 C.3   1 <1>  -0.0800 
 23 C       -9.4000    -3.9660    -0.3360 C.3   1 <1>  -0.0800 
 24 C      -11.9390    -2.9970    -1.4720 C.3   1 <1>  -0.1600 
 25 C      -10.7560    -4.5200     0.1320 C.3   1 <1>  -0.1600 
 26 C       -9.5100    -3.5230    -1.8060 C.3   1 <1>  -0.1600 
 27 H       -1.4260    -1.4120     0.8130 H     1 <1>   0.0800 
 28 H       -3.0800    -1.9670     0.6620 H     1 <1>   0.0800 
 29 H       -2.5490    -1.1600     2.1320 H     1 <1>   0.0800 
 30 H       -1.1260     3.0210    -1.6120 H     1 <1>   0.0800 
 31 H       -2.1490     4.1100    -0.6960 H     1 <1>   0.0800 
 32 H       -2.7320     3.4060    -2.1970 H     1 <1>   0.0800 
 33 H       -5.2610    -0.5640     1.7670 H     1 <1>   0.1500 
 34 H       -4.9560     3.8050    -0.5390 H     1 <1>   0.1500 
 35 H       -7.0490     3.1690     0.5820 H     1 <1>   0.1500 
 36 H       -8.1440     1.7290     2.2500 H     1 <1>   0.0800 
 37 H       -7.4170     0.2110     2.7530 H     1 <1>   0.0800 
 38 H       -7.8120    -0.6230     0.5150 H     1 <1>   0.4500 
 39 H       -8.5620     0.7620     0.0890 H     1 <1>   0.4500 
 40 H       -9.5530    -0.8320     2.3320 H     1 <1>   0.0800 
 41 H      -10.8780     1.1420     0.4400 H     1 <1>   0.0800 
 42 H      -10.3400     1.4990     2.0670 H     1 <1>   0.0800 
 43 H      -11.6200     0.3750     1.8130 H     1 <1>   0.0800 
 44 H      -12.2350    -1.4920     0.7670 H     1 <1>   0.0800 
 45 H      -11.4050    -2.5220     1.8930 H     1 <1>   0.0800 
 46 H       -9.2810    -0.8200    -1.4530 H     1 <1>   0.0800 
 47 H      -10.9650    -0.4650    -1.2090 H     1 <1>   0.0800 
 48 H       -8.9360    -3.0740     1.5550 H     1 <1>   0.0800 
 49 H       -8.0550    -2.4150     0.2100 H     1 <1>   0.0800 
 50 H      -12.7850    -3.8280     0.3260 H     1 <1>   0.0800 
 51 H      -10.6670    -2.1370    -2.9820 H     1 <1>   0.0800 
 52 H       -8.6490    -4.7330    -0.2450 H     1 <1>   0.0800 
 53 H      -12.7080    -2.2510    -1.5820 H     1 <1>   0.0800 
 54 H      -12.2170    -3.8390    -2.0830 H     1 <1>   0.0800 
 55 H      -11.0250    -5.3750    -0.4650 H     1 <1>   0.0800 
 56 H      -10.6880    -4.8490     1.1540 H     1 <1>   0.0800 
 57 H       -9.7680    -4.3690    -2.4200 H     1 <1>   0.0800 
 58 H       -8.5610    -3.1510    -2.1530 H     1 <1>   0.0800 
@<TRIPOS>BOND
  1   1   2  2   
  2   2   3  am  
  3   2   4  am  
  4   3   5  1   
  5   3   6  1   
  6   4   7  1   
  7   4   8  1   
  8   5   7  ar  
  9   5   9  ar  
 10   6  27  1   
 11   6  28  1   
 12   6  29  1   
 13   7  10  ar  
 14   8  30  1   
 15   8  31  1   
 16   8  32  1   
 17   9  11  ar  
 18   9  33  1   
 19  10  12  ar  
 20  10  34  1   
 21  11  12  ar  
 22  11  13  1   
 23  12  35  1   
 24  13  14  1   
 25  13  36  1   
 26  13  37  1   
 27  14  15  1   
 28  14  38  1   
 29  14  39  1   
 30  15  16  1   
 31  15  17  1   
 32  15  40  1   
 33  16  18  1   
 34  16  19  1   
 35  16  20  1   
 36  17  41  1   
 37  17  42  1   
 38  17  43  1   
 39  18  21  1   
 40  18  44  1   
 41  18  45  1   
 42  19  22  1   
 43  19  46  1   
 44  19  47  1   
 45  20  23  1   
 46  20  48  1   
 47  20  49  1   
 48  21  24  1   
 49  21  25  1   
 50  21  50  1   
 51  22  24  1   
 52  22  26  1   
 53  22  51  1   
 54  23  25  1   
 55  23  26  1   
 56  23  52  1   
 57  24  53  1   
 58  24  54  1   
 59  25  55  1   
 60  25  56  1   
 61  26  57  1   
 62  26  58  1   
@<TRIPOS>SUBSTRUCTURE
  1 ****  14 GROUP 4 **** **** 0

# MOE 2024.06 (io_trps.svl 2023.06)
