@<TRIPOS>MOLECULE
N-Adamantan-2-yl-2-(1,1,3-trioxo-1,3-dihydro-1lambda*6*-benzo[d]isothiazol-2-yl)
48 52 1 0 0 
SMALL
USER_CHARGES


@<TRIPOS>ATOM
  1 S        1.6770    -0.5850    -0.6610 S.o2  1 <1>   1.4470 
  2 O        0.5160    -1.2920    -1.1360 O.2   1 <1>  -0.6500 
  3 O        2.9640    -1.2180    -0.5090 O.2   1 <1>  -0.6500 
  4 N        1.9140     0.7590    -1.7040 N.am  1 <1>  -0.7300 
  5 C        1.3160     0.4690     0.7370 C.ar  1 <1>  -0.0090 
  6 C        1.7960     1.9300    -1.0300 C.2   1 <1>   0.7200 
  7 C        2.7440     0.6120    -2.9370 C.3   1 <1>   0.2570 
  8 C        1.4310     1.7940     0.3630 C.ar  1 <1>   0.0860 
  9 C        0.9800     0.1240     2.0360 C.ar  1 <1>  -0.1500 
 10 O        1.9980     2.9940    -1.5710 O.2   1 <1>  -0.5700 
 11 C        4.2190     0.9830    -2.7400 C.2   1 <1>   0.5690 
 12 C        1.2080     2.7950     1.3040 C.ar  1 <1>  -0.1500 
 13 C        0.7580     1.1240     2.9700 C.ar  1 <1>  -0.1500 
 14 O        4.7480     1.7160    -3.5410 O.2   1 <1>  -0.5700 
 15 N        4.8930     0.4930    -1.6670 N.am  1 <1>  -0.7300 
 16 C        0.8730     2.4560     2.6030 C.ar  1 <1>  -0.1500 
 17 C        6.1970     0.9790    -1.1810 C.3   1 <1>   0.2200 
 18 C        7.0830    -0.2020    -0.7280 C.3   1 <1>  -0.0800 
 19 C        5.9830     1.9450     0.0040 C.3   1 <1>  -0.0800 
 20 C        6.4550    -0.9350     0.4790 C.3   1 <1>  -0.1600 
 21 C        8.4550     0.3590    -0.2970 C.3   1 <1>  -0.1600 
 22 C        5.3500     1.2090     1.2070 C.3   1 <1>  -0.1600 
 23 C        7.3560     2.5020     0.4340 C.3   1 <1>  -0.1600 
 24 C        6.2590     0.0460     1.6510 C.3   1 <1>  -0.0800 
 25 C        8.2790     1.3480     0.8730 C.3   1 <1>  -0.0800 
 26 C        7.6320     0.6120     2.0620 C.3   1 <1>  -0.1600 
 27 H        2.3390     1.2540    -3.7000 H     1 <1>   0.0800 
 28 H        2.6870    -0.4000    -3.2930 H     1 <1>   0.0800 
 29 H        0.8920    -0.9120     2.3190 H     1 <1>   0.1500 
 30 H        1.3010     3.8280     1.0120 H     1 <1>   0.1500 
 31 H        0.4960     0.8670     3.9830 H     1 <1>   0.1500 
 32 H        4.4540    -0.2150    -1.0640 H     1 <1>   0.3700 
 33 H        0.7000     3.2300     3.3340 H     1 <1>   0.1500 
 34 H        6.6910     1.5060    -1.9810 H     1 <1>   0.0800 
 35 H        7.2190    -0.8830    -1.5500 H     1 <1>   0.0800 
 36 H        5.3530     2.7600    -0.3100 H     1 <1>   0.0800 
 37 H        7.0990    -1.7400     0.7860 H     1 <1>   0.0800 
 38 H        5.5120    -1.3730     0.2040 H     1 <1>   0.0800 
 39 H        8.9220     0.8580    -1.1290 H     1 <1>   0.0800 
 40 H        9.1010    -0.4490     0.0020 H     1 <1>   0.0800 
 41 H        4.3790     0.8300     0.9460 H     1 <1>   0.0800 
 42 H        5.2170     1.8970     2.0230 H     1 <1>   0.0800 
 43 H        7.2300     3.1970     1.2450 H     1 <1>   0.0800 
 44 H        7.8040     3.0360    -0.3860 H     1 <1>   0.0800 
 45 H        5.8140    -0.4680     2.4860 H     1 <1>   0.0800 
 46 H        9.2380     1.7400     1.1660 H     1 <1>   0.0800 
 47 H        8.2730    -0.1890     2.3870 H     1 <1>   0.0800 
 48 H        7.5140     1.2900     2.8890 H     1 <1>   0.0800 
@<TRIPOS>BOND
  1   1   2  2   
  2   1   3  2   
  3   1   4  am  
  4   1   5  1   
  5   4   6  am  
  6   4   7  1   
  7   5   8  ar  
  8   5   9  ar  
  9   6   8  1   
 10   6  10  2   
 11   7  11  1   
 12   7  27  1   
 13   7  28  1   
 14   8  12  ar  
 15   9  13  ar  
 16   9  29  1   
 17  11  14  2   
 18  11  15  am  
 19  12  16  ar  
 20  12  30  1   
 21  13  16  ar  
 22  13  31  1   
 23  15  17  1   
 24  15  32  1   
 25  16  33  1   
 26  17  18  1   
 27  17  19  1   
 28  17  34  1   
 29  18  20  1   
 30  18  21  1   
 31  18  35  1   
 32  19  22  1   
 33  19  23  1   
 34  19  36  1   
 35  20  24  1   
 36  20  37  1   
 37  20  38  1   
 38  21  25  1   
 39  21  39  1   
 40  21  40  1   
 41  22  24  1   
 42  22  41  1   
 43  22  42  1   
 44  23  25  1   
 45  23  43  1   
 46  23  44  1   
 47  24  26  1   
 48  24  45  1   
 49  25  26  1   
 50  25  46  1   
 51  26  47  1   
 52  26  48  1   
@<TRIPOS>SUBSTRUCTURE
  1 ****  15 GROUP 4 **** **** 0

# MOE 2024.06 (io_trps.svl 2023.06)
