@<TRIPOS>MOLECULE
2-[2-Methyl-4-(morpholine-4-sulfonyl)-phenoxy]-1-piperidin-1-yl-ethanone
52 54 1 0 0 
SMALL
USER_CHARGES


@<TRIPOS>ATOM
  1 S       -0.4010     0.5490     1.1490 S.o2  1 <1>   1.4470 
  2 O       -0.9210     1.8970     1.2200 O.2   1 <1>  -0.6500 
  3 O       -0.8940    -0.4500     2.0740 O.2   1 <1>  -0.6500 
  4 N       -0.7440    -0.0220    -0.4090 N.am  1 <1>  -0.8490 
  5 C        1.4110     0.5950     1.1850 C.ar  1 <1>  -0.0090 
  6 C       -2.1630     0.1650    -0.7470 C.3   1 <1>   0.1960 
  7 C       -0.3860    -1.4390    -0.5880 C.3   1 <1>   0.1960 
  8 C        2.1200     1.3740     0.2770 C.ar  1 <1>  -0.1500 
  9 C        2.1340    -0.1540     2.1070 C.ar  1 <1>  -0.1500 
 10 C       -2.4730    -0.3630    -2.1600 C.3   1 <1>   0.1200 
 11 C       -0.7310    -1.9200    -2.0090 C.3   1 <1>   0.1200 
 12 C        3.5050     1.4150     0.2720 C.ar  1 <1>  -0.1430 
 13 C        3.5160    -0.1260     2.1210 C.ar  1 <1>  -0.1500 
 14 O       -2.0860    -1.7030    -2.2850 O.3   1 <1>  -0.5600 
 15 C        4.2010     0.6610     1.2110 C.ar  1 <1>   0.0830 
 16 C        4.2190     2.2830    -0.7540 C.3   1 <1>  -0.0970 
 17 O        5.5470     0.6610     1.2530 O.3   1 <1>  -0.3630 
 18 C        6.1650     1.6540     2.0630 C.3   1 <1>   0.1810 
 19 C        6.8710     2.7170     1.2240 C.2   1 <1>   0.5690 
 20 O        6.5210     3.8640     1.3880 O.2   1 <1>  -0.5700 
 21 N        7.8710     2.3940     0.3340 N.am  1 <1>  -0.6600 
 22 C        8.4240     1.0250     0.1270 C.3   1 <1>   0.1400 
 23 C        8.4620     3.4170    -0.5720 C.3   1 <1>   0.1400 
 24 C        8.1720     0.5850    -1.3180 C.3   1 <1>  -0.1600 
 25 C        8.2150     3.0100    -2.0300 C.3   1 <1>  -0.1600 
 26 C        8.7410     1.5970    -2.3240 C.3   1 <1>  -0.1600 
 27 H       -2.4090     1.2130    -0.7070 H     1 <1>   0.0800 
 28 H       -2.7840    -0.3490    -0.0320 H     1 <1>   0.0800 
 29 H       -0.9160    -2.0520     0.1220 H     1 <1>   0.0800 
 30 H        0.6700    -1.5700    -0.4210 H     1 <1>   0.0800 
 31 H        1.5660     1.9580    -0.4390 H     1 <1>   0.1500 
 32 H        1.6090    -0.7670     2.8220 H     1 <1>   0.1500 
 33 H       -1.9510     0.2170    -2.9000 H     1 <1>   0.0800 
 34 H       -3.5290    -0.3060    -2.3550 H     1 <1>   0.0800 
 35 H       -0.5430    -2.9750    -2.1010 H     1 <1>   0.0800 
 36 H       -0.1410    -1.3950    -2.7400 H     1 <1>   0.0800 
 37 H        4.0670    -0.7120     2.8350 H     1 <1>   0.1500 
 38 H        3.6060     2.4290    -1.6240 H     1 <1>   0.0800 
 39 H        5.1380     1.8210    -1.0660 H     1 <1>   0.0800 
 40 H        4.4430     3.2440    -0.3260 H     1 <1>   0.0800 
 41 H        6.8790     1.1650     2.6960 H     1 <1>   0.0800 
 42 H        5.4160     2.1200     2.6800 H     1 <1>   0.0800 
 43 H        7.9850     0.3150     0.8030 H     1 <1>   0.0800 
 44 H        9.4840     1.0470     0.3170 H     1 <1>   0.0800 
 45 H        9.5190     3.4860    -0.3830 H     1 <1>   0.0800 
 46 H        8.0270     4.3860    -0.3920 H     1 <1>   0.0800 
 47 H        7.1120     0.4750    -1.4670 H     1 <1>   0.0800 
 48 H        8.6250    -0.3770    -1.4800 H     1 <1>   0.0800 
 49 H        8.6960     3.7180    -2.6810 H     1 <1>   0.0800 
 50 H        7.1580     3.0530    -2.2250 H     1 <1>   0.0800 
 51 H        8.4680     1.3080    -3.3250 H     1 <1>   0.0800 
 52 H        9.8150     1.5970    -2.2580 H     1 <1>   0.0800 
@<TRIPOS>BOND
  1   1   2  2   
  2   1   3  2   
  3   1   4  am  
  4   1   5  1   
  5   4   6  1   
  6   4   7  1   
  7   5   8  ar  
  8   5   9  ar  
  9   6  10  1   
 10   6  27  1   
 11   6  28  1   
 12   7  11  1   
 13   7  29  1   
 14   7  30  1   
 15   8  12  ar  
 16   8  31  1   
 17   9  13  ar  
 18   9  32  1   
 19  10  14  1   
 20  10  33  1   
 21  10  34  1   
 22  11  14  1   
 23  11  35  1   
 24  11  36  1   
 25  12  15  ar  
 26  12  16  1   
 27  13  15  ar  
 28  13  37  1   
 29  15  17  1   
 30  16  38  1   
 31  16  39  1   
 32  16  40  1   
 33  17  18  1   
 34  18  19  1   
 35  18  41  1   
 36  18  42  1   
 37  19  20  2   
 38  19  21  am  
 39  21  22  1   
 40  21  23  1   
 41  22  24  1   
 42  22  43  1   
 43  22  44  1   
 44  23  25  1   
 45  23  45  1   
 46  23  46  1   
 47  24  26  1   
 48  24  47  1   
 49  24  48  1   
 50  25  26  1   
 51  25  49  1   
 52  25  50  1   
 53  26  51  1   
 54  26  52  1   
@<TRIPOS>SUBSTRUCTURE
  1 ****  12 GROUP 4 **** **** 0

# MOE 2024.06 (io_trps.svl 2023.06)
