@<TRIPOS>MOLECULE
8-Diethylamino-7-[3-(3,4-dimethyl-phenoxy)-2-hydroxy-propyl]-3-methyl-3,7-dihydr
60 62 1 0 0 
SMALL
USER_CHARGES


@<TRIPOS>ATOM
  1 O        1.2330     2.7760    -1.1190 O.2   1 <1>  -0.5740 
  2 C        2.4310     2.6760    -0.9980 C.2   1 <1>   0.6870 
  3 N        3.0500     1.4660    -0.7220 N.am  1 <1>  -0.4410 
  4 N        3.1940     3.7980    -1.1390 N.am  1 <1>  -0.4940 
  5 C        4.4310     1.4670    -0.5880 C.2   1 <1>   0.4210 
  6 C        2.2540     0.2150    -0.5540 C.3   1 <1>   0.0540 
  7 C        4.5540     3.8140    -1.0140 C.2   1 <1>   0.7000 
  8 N        5.2360     0.4130    -0.3010 N.pl3 1 <1>  -0.7030 
  9 C        5.2030     2.5660    -0.7230 C.2   1 <1>   0.2720 
 10 O        5.1410     4.8720    -1.1510 O.2   1 <1>  -0.5740 
 11 C        6.5040     0.8310    -0.2380 C.cat 1 <1>   1.0690 
 12 N        6.5340     2.1500    -0.5080 N.pl3 1 <1>  -0.7670 
 13 N        7.5150    -0.0280     0.0670 N.pl3 1 <1>  -0.5950 
 14 C        7.6470     3.1520    -0.5230 C.3   1 <1>   0.3490 
 15 C        8.9370     0.3400     0.3240 C.3   1 <1>   0.1620 
 16 C        7.2840    -1.4980     0.2080 C.3   1 <1>   0.1620 
 17 C        7.8160     3.8500     0.8490 C.3   1 <1>   0.1940 
 18 C        9.7500     0.2110    -0.9640 C.3   1 <1>  -0.2460 
 19 C        6.8640    -1.8210     1.6410 C.3   1 <1>  -0.2460 
 20 O        6.6180     4.4280     1.2680 O.3   1 <1>  -0.6830 
 21 C        8.9130     4.9140     0.8120 C.3   1 <1>   0.1140 
 22 O       10.0800     4.3080     0.2990 O.3   1 <1>  -0.3670 
 23 C       11.2210     5.0190     0.1180 C.ar  1 <1>   0.0760 
 24 C       11.3640     6.3590     0.4680 C.ar  1 <1>  -0.1560 
 25 C       12.2900     4.3500    -0.4500 C.ar  1 <1>  -0.1560 
 26 C       12.5620     7.0220     0.2500 C.ar  1 <1>  -0.1500 
 27 C       13.4860     5.0070    -0.6700 C.ar  1 <1>  -0.1560 
 28 C       13.6320     6.3420    -0.3240 C.ar  1 <1>  -0.1500 
 29 C       12.6790     8.4880     0.6460 C.3   1 <1>  -0.1030 
 30 C       14.9650     7.0290    -0.5830 C.3   1 <1>  -0.1030 
 31 H        2.7080     4.6700    -1.3370 H     1 <1>   0.3650 
 32 H        1.2290     0.3710    -0.8470 H     1 <1>   0.0740 
 33 H        2.2690    -0.0900     0.4780 H     1 <1>   0.0740 
 34 H        2.6620    -0.5680    -1.1680 H     1 <1>   0.0740 
 35 H        4.9420    -0.5360    -0.0990 H     1 <1>   0.4460 
 36 H        7.4550     3.8980    -1.2740 H     1 <1>   0.0740 
 37 H        8.5670     2.6820    -0.8120 H     1 <1>   0.0740 
 38 H        9.3530    -0.3190     1.0690 H     1 <1>   0.0740 
 39 H        9.0140     1.3310     0.7250 H     1 <1>   0.0740 
 40 H        8.1870    -2.0380    -0.0300 H     1 <1>   0.0740 
 41 H        6.5300    -1.8310    -0.4850 H     1 <1>   0.0740 
 42 H        8.0810     3.1230     1.5940 H     1 <1>   0.0740 
 43 H        9.7960    -0.8150    -1.2830 H     1 <1>   0.0740 
 44 H       10.7570     0.5450    -0.7850 H     1 <1>   0.0740 
 45 H        9.3340     0.8060    -1.7560 H     1 <1>   0.0740 
 46 H        7.6400    -1.5470     2.3340 H     1 <1>   0.0740 
 47 H        6.7000    -2.8810     1.7350 H     1 <1>   0.0740 
 48 H        5.9550    -1.3160     1.9100 H     1 <1>   0.0740 
 49 H        6.3320     5.1400     0.6510 H     1 <1>   0.3950 
 50 H        9.1260     5.2730     1.8040 H     1 <1>   0.0740 
 51 H        8.6440     5.7270     0.1600 H     1 <1>   0.0740 
 52 H       10.5520     6.8990     0.9140 H     1 <1>   0.1440 
 53 H       12.1880     3.3160    -0.7200 H     1 <1>   0.1440 
 54 H       14.3060     4.4710    -1.1130 H     1 <1>   0.1440 
 55 H       11.7640     8.8470     1.0800 H     1 <1>   0.0740 
 56 H       12.8990     9.0860    -0.2200 H     1 <1>   0.0740 
 57 H       13.4660     8.6120     1.3670 H     1 <1>   0.0740 
 58 H       15.3840     7.3800     0.3430 H     1 <1>   0.0740 
 59 H       14.8270     7.8640    -1.2460 H     1 <1>   0.0740 
 60 H       15.6670     6.3530    -1.0350 H     1 <1>   0.0740 
@<TRIPOS>BOND
  1   1   2  2   
  2   2   3  am  
  3   2   4  am  
  4   3   5  1   
  5   3   6  1   
  6   4   7  am  
  7   4  31  1   
  8   5   8  1   
  9   5   9  2   
 10   6  32  1   
 11   6  33  1   
 12   6  34  1   
 13   7   9  1   
 14   7  10  2   
 15   8  11  ar  
 16   8  35  1   
 17   9  12  1   
 18  11  12  ar  
 19  11  13  ar  
 20  12  14  1   
 21  13  15  1   
 22  13  16  1   
 23  14  17  1   
 24  14  36  1   
 25  14  37  1   
 26  15  18  1   
 27  15  38  1   
 28  15  39  1   
 29  16  19  1   
 30  16  40  1   
 31  16  41  1   
 32  17  20  1   
 33  17  21  1   
 34  17  42  1   
 35  18  43  1   
 36  18  44  1   
 37  18  45  1   
 38  19  46  1   
 39  19  47  1   
 40  19  48  1   
 41  20  49  1   
 42  21  22  1   
 43  21  50  1   
 44  21  51  1   
 45  22  23  1   
 46  23  24  ar  
 47  23  25  ar  
 48  24  26  ar  
 49  24  52  1   
 50  25  27  ar  
 51  25  53  1   
 52  26  28  ar  
 53  26  29  1   
 54  27  28  ar  
 55  27  54  1   
 56  28  30  1   
 57  29  55  1   
 58  29  56  1   
 59  29  57  1   
 60  30  58  1   
 61  30  59  1   
 62  30  60  1   
@<TRIPOS>SUBSTRUCTURE
  1 ****  14 GROUP 4 **** **** 0

# MOE 2024.06 (io_trps.svl 2023.06)
