@<TRIPOS>MOLECULE
Furan-2-carboxylic acid [2-methoxy-5-(2-methyl-butyrylamino)-phenyl]-amide
43 44 1 0 0 
SMALL
USER_CHARGES


@<TRIPOS>ATOM
  1 O        0.2970    -0.0220    -0.9310 O.2   1 <1>  -0.5700 
  2 C        0.7340    -1.0960    -0.5570 C.2   1 <1>   0.7150 
  3 N       -0.1120    -2.1070    -0.1800 N.am  1 <1>  -0.5470 
  4 C        2.1570    -1.3320    -0.5080 C.2   1 <1>   0.0550 
  5 C       -1.5100    -2.2530    -0.1050 C.ar  1 <1>   0.1170 
  6 O        2.6430    -2.5060    -0.1070 O.3   1 <1>  -0.2800 
  7 C        3.2040    -0.5190    -0.8200 C.2   1 <1>  -0.1500 
  8 C       -2.0230    -3.5220     0.1860 C.ar  1 <1>   0.0830 
  9 C       -2.3970    -1.2010    -0.2980 C.ar  1 <1>  -0.1500 
 10 C        3.9550    -2.4600    -0.1550 C.2   1 <1>  -0.0100 
 11 C        4.3690    -1.2510    -0.5910 C.2   1 <1>  -0.1500 
 12 O       -1.1200    -4.5330     0.3810 O.3   1 <1>  -0.3620 
 13 C       -3.3990    -3.7110     0.2660 C.ar  1 <1>  -0.1500 
 14 C       -3.7700    -1.3780    -0.2180 C.ar  1 <1>   0.1170 
 15 C       -1.5500    -5.8380     0.7020 C.3   1 <1>   0.0400 
 16 C       -4.2600    -2.6480     0.0630 C.ar  1 <1>  -0.1500 
 17 N       -4.5970    -0.2640    -0.4400 N.am  1 <1>  -0.5470 
 18 C       -5.8910    -0.0120    -0.0720 C.2   1 <1>   0.5690 
 19 O       -6.5660    -0.7890     0.5600 O.2   1 <1>  -0.5700 
 20 C       -6.4900     1.3390    -0.4800 C.3   1 <1>  -0.0190 
 21 C       -6.6190     2.2960     0.7220 C.3   1 <1>  -0.1600 
 22 C       -7.8590     1.1670    -1.1630 C.3   1 <1>  -0.2400 
 23 C       -5.2660     2.6380     1.3600 C.3   1 <1>  -0.2400 
 24 H        0.3830    -2.9690     0.0630 H     1 <1>   0.3700 
 25 H        3.1560     0.4960    -1.1760 H     1 <1>   0.1500 
 26 H       -2.0220    -0.2200    -0.5090 H     1 <1>   0.1500 
 27 H        4.5220    -3.3280     0.1360 H     1 <1>   0.1500 
 28 H        5.3750    -0.8980    -0.7390 H     1 <1>   0.1500 
 29 H       -3.8250    -4.6710     0.4840 H     1 <1>   0.1500 
 30 H       -0.6800    -6.4580     0.8200 H     1 <1>   0.0800 
 31 H       -2.1590    -6.2140    -0.1020 H     1 <1>   0.0800 
 32 H       -2.1030    -5.8080     1.6240 H     1 <1>   0.0800 
 33 H       -5.3200    -2.8140     0.1220 H     1 <1>   0.1500 
 34 H       -4.1250     0.5160    -0.8910 H     1 <1>   0.3700 
 35 H       -5.8340     1.7960    -1.1990 H     1 <1>   0.0800 
 36 H       -7.2550     1.8460     1.4670 H     1 <1>   0.0800 
 37 H       -7.0880     3.2100     0.4010 H     1 <1>   0.0800 
 38 H       -8.5670     0.7370    -0.4760 H     1 <1>   0.0800 
 39 H       -7.7690     0.5100    -2.0100 H     1 <1>   0.0800 
 40 H       -8.2370     2.1150    -1.5010 H     1 <1>   0.0800 
 41 H       -4.8010     1.7570     1.7680 H     1 <1>   0.0800 
 42 H       -5.4100     3.3400     2.1630 H     1 <1>   0.0800 
 43 H       -4.6040     3.0800     0.6370 H     1 <1>   0.0800 
@<TRIPOS>BOND
  1   1   2  2   
  2   2   3  am  
  3   2   4  1   
  4   3   5  1   
  5   3  24  1   
  6   4   6  1   
  7   4   7  2   
  8   5   8  ar  
  9   5   9  ar  
 10   6  10  1   
 11   7  11  1   
 12   7  25  1   
 13   8  12  1   
 14   8  13  ar  
 15   9  14  ar  
 16   9  26  1   
 17  10  11  2   
 18  10  27  1   
 19  11  28  1   
 20  12  15  1   
 21  13  16  ar  
 22  13  29  1   
 23  14  16  ar  
 24  14  17  1   
 25  15  30  1   
 26  15  31  1   
 27  15  32  1   
 28  16  33  1   
 29  17  18  am  
 30  17  34  1   
 31  18  19  2   
 32  18  20  1   
 33  20  21  1   
 34  20  22  1   
 35  20  35  1   
 36  21  23  1   
 37  21  36  1   
 38  21  37  1   
 39  22  38  1   
 40  22  39  1   
 41  22  40  1   
 42  23  41  1   
 43  23  42  1   
 44  23  43  1   
@<TRIPOS>SUBSTRUCTURE
  1 ****   9 GROUP 4 **** **** 0

# MOE 2024.06 (io_trps.svl 2023.06)
