@<TRIPOS>MOLECULE
2-(2-Oxo-2-piperidin-1-yl-ethanesulfonyl)-benzoic acid
37 38 1 0 0 
SMALL
USER_CHARGES


@<TRIPOS>ATOM
  1 S       -0.0780    -1.0860     0.6750 S.o2  1 <1>   1.2040 
  2 O        0.6120    -0.4840     1.7960 O.2   1 <1>  -0.6500 
  3 O       -0.4820    -2.4670     0.8560 O.2   1 <1>  -0.6500 
  4 C       -1.6030    -0.1600     0.2790 C.ar  1 <1>  -0.0090 
  5 C        0.8910    -1.0460    -0.8200 C.3   1 <1>   0.0060 
  6 C       -1.6780     1.2430     0.2240 C.ar  1 <1>  -0.1790 
  7 C       -2.7660    -0.8840     0.0250 C.ar  1 <1>  -0.1500 
  8 C        2.1290    -1.8690    -0.6330 C.2   1 <1>   0.5690 
  9 C       -0.5260     2.1010     0.4100 C.2   1 <1>   0.9790 
 10 C       -2.9100     1.8460    -0.0390 C.ar  1 <1>  -0.1500 
 11 C       -3.9750    -0.2720    -0.2530 C.ar  1 <1>  -0.1500 
 12 O        2.1100    -2.9830    -1.1060 O.2   1 <1>  -0.5700 
 13 N        3.2500    -1.3750    -0.0080 N.am  1 <1>  -0.6600 
 14 O       -0.5960     3.1280     1.1010 O.co2 1 <1>  -0.9000 
 15 O        0.5240     1.8540    -0.2000 O.co2 1 <1>  -0.9000 
 16 C       -4.0480     1.1050    -0.2790 C.ar  1 <1>  -0.1500 
 17 C        4.4510    -2.2240     0.2140 C.3   1 <1>   0.1400 
 18 C        3.3660    -0.0050     0.5840 C.3   1 <1>   0.1400 
 19 C        5.6890    -1.5360    -0.3710 C.3   1 <1>  -0.1600 
 20 C        4.5970     0.7050     0.0110 C.3   1 <1>  -0.1600 
 21 C        5.8740    -0.1240     0.2040 C.3   1 <1>  -0.1600 
 22 H        1.1780    -0.0690    -1.1280 H     1 <1>   0.0800 
 23 H        0.3230    -1.4750    -1.6190 H     1 <1>   0.0800 
 24 H       -2.7380    -1.9590     0.0520 H     1 <1>   0.1500 
 25 H       -2.9570     2.9230    -0.0540 H     1 <1>   0.1500 
 26 H       -4.8530    -0.8650    -0.4400 H     1 <1>   0.1500 
 27 H       -4.9800     1.5990    -0.4830 H     1 <1>   0.1500 
 28 H        4.3250    -3.1900    -0.2450 H     1 <1>   0.0800 
 29 H        4.5780    -2.3730     1.2720 H     1 <1>   0.0800 
 30 H        3.4560    -0.0930     1.6530 H     1 <1>   0.0800 
 31 H        2.4980     0.5950     0.3850 H     1 <1>   0.0800 
 32 H        5.5790    -1.4820    -1.4400 H     1 <1>   0.0800 
 33 H        6.5590    -2.1310    -0.1590 H     1 <1>   0.0800 
 34 H        4.7030     1.6600     0.4930 H     1 <1>   0.0800 
 35 H        4.4300     0.8860    -1.0370 H     1 <1>   0.0800 
 36 H        6.7010     0.3630    -0.2820 H     1 <1>   0.0800 
 37 H        6.0960    -0.1930     1.2550 H     1 <1>   0.0800 
@<TRIPOS>BOND
  1   1   2  2   
  2   1   3  2   
  3   1   4  1   
  4   1   5  1   
  5   4   6  ar  
  6   4   7  ar  
  7   5   8  1   
  8   5  22  1   
  9   5  23  1   
 10   6   9  1   
 11   6  10  ar  
 12   7  11  ar  
 13   7  24  1   
 14   8  12  2   
 15   8  13  am  
 16   9  14  ar  
 17   9  15  ar  
 18  10  16  ar  
 19  10  25  1   
 20  11  16  ar  
 21  11  26  1   
 22  13  17  1   
 23  13  18  1   
 24  16  27  1   
 25  17  19  1   
 26  17  28  1   
 27  17  29  1   
 28  18  20  1   
 29  18  30  1   
 30  18  31  1   
 31  19  21  1   
 32  19  32  1   
 33  19  33  1   
 34  20  21  1   
 35  20  34  1   
 36  20  35  1   
 37  21  36  1   
 38  21  37  1   
@<TRIPOS>SUBSTRUCTURE
  1 ****   5 GROUP 4 **** **** 0

# MOE 2024.06 (io_trps.svl 2023.06)
