@<TRIPOS>MOLECULE
1-(4,6-Dimethyl-pyrimidin-2-yl)-piperidine-3-carboxylic acid amide
35 36 1 0 0 
SMALL
USER_CHARGES


@<TRIPOS>ATOM
  1 O        0.1060     1.9350    -1.2520 O.2   1 <1>  -0.5700 
  2 C       -0.4970     1.6170    -0.2590 C.2   1 <1>   0.5690 
  3 N        0.0380     0.7220     0.5910 N.am  1 <1>  -0.8000 
  4 C       -1.8590     2.2210     0.0400 C.3   1 <1>  -0.0190 
  5 C       -2.8200     1.9050    -1.1080 C.3   1 <1>   0.2090 
  6 C       -1.7780     3.7440     0.2780 C.3   1 <1>  -0.1600 
  7 N       -4.1580     2.4870    -0.7970 N.pl3 1 <1>  -0.8380 
  8 C       -3.1800     4.3420     0.4880 C.3   1 <1>  -0.1600 
  9 C       -5.2190     1.7140    -0.3730 C.ar  1 <1>   0.7200 
 10 C       -4.1470     3.9650    -0.6420 C.3   1 <1>   0.2090 
 11 N       -6.4260     2.2770    -0.3990 N.ar  1 <1>  -0.6200 
 12 N       -4.9440     0.4750     0.0340 N.ar  1 <1>  -0.6200 
 13 C       -7.4260     1.5370     0.0020 C.ar  1 <1>   0.1670 
 14 C       -5.9590    -0.2490     0.4300 C.ar  1 <1>   0.1670 
 15 C       -7.2420     0.2450     0.4330 C.ar  1 <1>  -0.1500 
 16 C       -8.8020     2.1670    -0.0310 C.3   1 <1>  -0.0970 
 17 C       -5.6590    -1.6600     0.8870 C.3   1 <1>  -0.0970 
 18 H        0.9510     0.3170     0.3800 H     1 <1>   0.3700 
 19 H       -0.4280     0.3910     1.4350 H     1 <1>   0.3700 
 20 H       -2.2510     1.7520     0.9240 H     1 <1>   0.0800 
 21 H       -2.8860     0.8410    -1.2580 H     1 <1>   0.0800 
 22 H       -2.4530     2.3380    -2.0230 H     1 <1>   0.0800 
 23 H       -1.3180     4.2110    -0.5770 H     1 <1>   0.0800 
 24 H       -1.1620     3.9460     1.1370 H     1 <1>   0.0800 
 25 H       -3.1110     5.4130     0.5510 H     1 <1>   0.0800 
 26 H       -3.5910     3.9850     1.4160 H     1 <1>   0.0800 
 27 H       -5.1280     4.3450    -0.4180 H     1 <1>   0.0800 
 28 H       -3.8240     4.4100    -1.5680 H     1 <1>   0.0800 
 29 H       -8.0680    -0.3560     0.7590 H     1 <1>   0.1500 
 30 H       -9.0360     2.4630    -1.0370 H     1 <1>   0.0800 
 31 H       -8.8120     3.0380     0.5980 H     1 <1>   0.0800 
 32 H       -9.5520     1.4790     0.3140 H     1 <1>   0.0800 
 33 H       -5.1970    -2.2050     0.0840 H     1 <1>   0.0800 
 34 H       -6.5570    -2.1700     1.1840 H     1 <1>   0.0800 
 35 H       -4.9820    -1.6310     1.7200 H     1 <1>   0.0800 
@<TRIPOS>BOND
  1   1   2  2   
  2   2   3  am  
  3   2   4  1   
  4   3  18  1   
  5   3  19  1   
  6   4   5  1   
  7   4   6  1   
  8   4  20  1   
  9   5   7  1   
 10   5  21  1   
 11   5  22  1   
 12   6   8  1   
 13   6  23  1   
 14   6  24  1   
 15   7   9  1   
 16   7  10  1   
 17   8  10  1   
 18   8  25  1   
 19   8  26  1   
 20   9  11  ar  
 21   9  12  ar  
 22  10  27  1   
 23  10  28  1   
 24  11  13  ar  
 25  12  14  ar  
 26  13  15  ar  
 27  13  16  1   
 28  14  15  ar  
 29  14  17  1   
 30  15  29  1   
 31  16  30  1   
 32  16  31  1   
 33  16  32  1   
 34  17  33  1   
 35  17  34  1   
 36  17  35  1   
@<TRIPOS>SUBSTRUCTURE
  1 ****   7 GROUP 4 **** **** 0

# MOE 2024.06 (io_trps.svl 2023.06)
