@<TRIPOS>MOLECULE
2-Hydroxy-5-[(tetrahydro-furan-2-carbonyl)-amino]-benzoic acid
30 31 1 0 0 
SMALL
USER_CHARGES


@<TRIPOS>ATOM
  1 O       -2.3180     2.7940    -2.8820 O.co2 1 <1>  -0.9000 
  2 C       -2.1100     1.9470    -1.9920 C.2   1 <1>   0.9790 
  3 O       -1.6130     0.8520    -2.3070 O.co2 1 <1>  -0.9000 
  4 C       -2.3360     2.3180    -0.6100 C.ar  1 <1>  -0.1790 
  5 C       -3.1640     1.6170     0.2700 C.ar  1 <1>   0.0830 
  6 C       -1.7080     3.4600    -0.1200 C.ar  1 <1>  -0.1500 
  7 O       -3.8280     0.5240    -0.1380 O.3   1 <1>  -0.5320 
  8 C       -3.3380     2.0380     1.5800 C.ar  1 <1>  -0.1500 
  9 C       -1.9070     3.9210     1.1720 C.ar  1 <1>   0.1170 
 10 C       -2.7140     3.1860     2.0280 C.ar  1 <1>  -0.1500 
 11 N       -1.3290     5.1150     1.6150 N.am  1 <1>  -0.5470 
 12 C       -1.4050     6.3720     1.0890 C.2   1 <1>   0.5690 
 13 O       -0.8670     7.2660     1.6990 O.2   1 <1>  -0.5700 
 14 C       -2.1800     6.6370    -0.2280 C.3   1 <1>   0.2610 
 15 O       -2.1270     7.9680    -0.6670 O.3   1 <1>  -0.5600 
 16 C       -3.6800     6.3550    -0.1470 C.3   1 <1>  -0.1600 
 17 C       -3.1270     8.1870    -1.6050 C.3   1 <1>   0.1200 
 18 C       -4.2730     7.2540    -1.2220 C.3   1 <1>  -0.1600 
 19 H       -1.0520     3.9900    -0.7890 H     1 <1>   0.1500 
 20 H       -4.2730     0.0450     0.5750 H     1 <1>   0.4500 
 21 H       -3.9670     1.4780     2.2460 H     1 <1>   0.1500 
 22 H       -2.8620     3.5210     3.0380 H     1 <1>   0.1500 
 23 H       -0.8410     5.0900     2.5090 H     1 <1>   0.3700 
 24 H       -1.7460     6.0460    -1.0130 H     1 <1>   0.0800 
 25 H       -4.0470     6.6360     0.8240 H     1 <1>   0.0800 
 26 H       -3.8970     5.3160    -0.3250 H     1 <1>   0.0800 
 27 H       -2.7330     7.9390    -2.5760 H     1 <1>   0.0800 
 28 H       -3.4110     9.2240    -1.5720 H     1 <1>   0.0800 
 29 H       -5.1130     7.8110    -0.8460 H     1 <1>   0.0800 
 30 H       -4.5820     6.6840    -2.0810 H     1 <1>   0.0800 
@<TRIPOS>BOND
  1   1   2  ar  
  2   2   3  ar  
  3   2   4  1   
  4   4   5  ar  
  5   4   6  ar  
  6   5   7  1   
  7   5   8  ar  
  8   6   9  ar  
  9   6  19  1   
 10   7  20  1   
 11   8  10  ar  
 12   8  21  1   
 13   9  10  ar  
 14   9  11  1   
 15  10  22  1   
 16  11  12  am  
 17  11  23  1   
 18  12  13  2   
 19  12  14  1   
 20  14  15  1   
 21  14  16  1   
 22  14  24  1   
 23  15  17  1   
 24  16  18  1   
 25  16  25  1   
 26  16  26  1   
 27  17  18  1   
 28  17  27  1   
 29  17  28  1   
 30  18  29  1   
 31  18  30  1   
@<TRIPOS>SUBSTRUCTURE
  1 ****   6 GROUP 4 **** **** 0

# MOE 2024.06 (io_trps.svl 2023.06)
