@<TRIPOS>MOLECULE
5-Oxo-4-oxa-tricyclo[4.2.1.0*3,7*]nonane-9-carboxylic acid (3,4-dimethyl-phenyl)
40 43 1 0 0 
SMALL
USER_CHARGES


@<TRIPOS>ATOM
  1 O       -0.6250    -1.9940     2.9730 O.2   1 <1>  -0.5700 
  2 C       -0.5980    -2.2900     1.8110 C.2   1 <1>   0.6590 
  3 O       -1.6580    -2.6180     1.1010 O.3   1 <1>  -0.4300 
  4 C        0.6360    -2.3270     0.9470 C.3   1 <1>  -0.0190 
  5 C       -1.3190    -2.8660    -0.2420 C.3   1 <1>   0.2000 
  6 C        1.1860    -3.7780     0.8790 C.3   1 <1>  -0.0190 
  7 C        0.0160    -2.1300    -0.4450 C.3   1 <1>  -0.0800 
  8 C       -0.9110    -4.3460    -0.3950 C.3   1 <1>  -0.1600 
  9 C        2.7060    -3.9200     0.9700 C.2   1 <1>   0.5690 
 10 C        0.6300    -4.2780    -0.4770 C.3   1 <1>  -0.0800 
 11 C        0.8030    -3.0540    -1.3600 C.3   1 <1>  -0.1600 
 12 O        3.1330    -4.9630     1.3960 O.2   1 <1>  -0.5700 
 13 N        3.5130    -2.8870     0.5680 N.am  1 <1>  -0.5470 
 14 C        4.9100    -2.7660     0.5070 C.ar  1 <1>   0.1170 
 15 C        5.4620    -1.4920     0.4330 C.ar  1 <1>  -0.1500 
 16 C        5.7740    -3.8540     0.4950 C.ar  1 <1>  -0.1500 
 17 C        6.8310    -1.2950     0.3510 C.ar  1 <1>  -0.1430 
 18 C        7.1410    -3.6700     0.4140 C.ar  1 <1>  -0.1500 
 19 C        7.6810    -2.3960     0.3420 C.ar  1 <1>  -0.1430 
 20 C        7.3740     0.1250     0.2750 C.3   1 <1>  -0.0970 
 21 C        9.1920    -2.2370     0.2550 C.3   1 <1>  -0.0970 
 22 H        1.3430    -1.5720     1.2380 H     1 <1>   0.0800 
 23 H       -2.1180    -2.5600    -0.8960 H     1 <1>   0.0800 
 24 H        0.7750    -4.3730     1.6780 H     1 <1>   0.0800 
 25 H       -0.0920    -1.1090    -0.7700 H     1 <1>   0.0800 
 26 H       -1.3040    -4.7370    -1.3180 H     1 <1>   0.0800 
 27 H       -1.2600    -4.9590     0.4200 H     1 <1>   0.0800 
 28 H        1.0940    -5.1810    -0.8410 H     1 <1>   0.0800 
 29 H        1.8290    -2.7560    -1.4900 H     1 <1>   0.0800 
 30 H        0.3390    -3.1720    -2.3260 H     1 <1>   0.0800 
 31 H        3.0210    -2.0510     0.2700 H     1 <1>   0.3700 
 32 H        4.8070    -0.6420     0.4440 H     1 <1>   0.1500 
 33 H        5.3860    -4.8540     0.5440 H     1 <1>   0.1500 
 34 H        7.7830    -4.5330     0.4090 H     1 <1>   0.1500 
 35 H        6.5780     0.8470     0.2980 H     1 <1>   0.0800 
 36 H        7.9260     0.2600    -0.6380 H     1 <1>   0.0800 
 37 H        8.0250     0.3150     1.1090 H     1 <1>   0.0800 
 38 H        9.4580    -1.7260    -0.6530 H     1 <1>   0.0800 
 39 H        9.6810    -3.1950     0.2570 H     1 <1>   0.0800 
 40 H        9.5520    -1.6730     1.0960 H     1 <1>   0.0800 
@<TRIPOS>BOND
  1   1   2  2   
  2   2   3  1   
  3   2   4  1   
  4   3   5  1   
  5   4   6  1   
  6   4   7  1   
  7   4  22  1   
  8   5   7  1   
  9   5   8  1   
 10   5  23  1   
 11   6   9  1   
 12   6  10  1   
 13   6  24  1   
 14   7  11  1   
 15   7  25  1   
 16   8  10  1   
 17   8  26  1   
 18   8  27  1   
 19   9  12  2   
 20   9  13  am  
 21  10  11  1   
 22  10  28  1   
 23  11  29  1   
 24  11  30  1   
 25  13  14  1   
 26  13  31  1   
 27  14  15  ar  
 28  14  16  ar  
 29  15  17  ar  
 30  15  32  1   
 31  16  18  ar  
 32  16  33  1   
 33  17  19  ar  
 34  17  20  1   
 35  18  19  ar  
 36  18  34  1   
 37  19  21  1   
 38  20  35  1   
 39  20  36  1   
 40  20  37  1   
 41  21  38  1   
 42  21  39  1   
 43  21  40  1   
@<TRIPOS>SUBSTRUCTURE
  1 ****  13 GROUP 4 **** **** 0

# MOE 2024.06 (io_trps.svl 2023.06)
