@<TRIPOS>MOLECULE
1-Allyl-3-ethyl-1-[3-(4-methoxy-phenyl)-[1,2,4]oxadiazol-5-ylmethyl]-urea
43 44 1 0 0 
SMALL
USER_CHARGES


@<TRIPOS>ATOM
  1 O        0.5990     0.6750     0.4730 O.2   1 <1>  -0.5700 
  2 C        0.7530     1.8410     0.1650 C.2   1 <1>   0.6900 
  3 N        1.6230     2.6330     0.8490 N.am  1 <1>  -0.6600 
  4 N        0.0730     2.3730    -0.8770 N.am  1 <1>  -0.7300 
  5 C        2.6820     2.0140     1.7060 C.3   1 <1>   0.3200 
  6 C        1.4240     4.1010     0.9450 C.3   1 <1>   0.2780 
  7 C       -0.8380     1.6240    -1.7580 C.3   1 <1>   0.1400 
  8 C        4.0690     2.5960     1.4560 C.2   1 <1>   0.2980 
  9 C        2.0880     4.8340    -0.2140 C.2   1 <1>  -0.2880 
 10 C       -1.8650     2.5930    -2.3300 C.3   1 <1>  -0.2400 
 11 O        4.3750     3.7350     2.0210 O.3   1 <1>  -0.0190 
 12 N        4.9890     2.0760     0.7510 N.2   1 <1>  -0.5650 
 13 C        2.8080     4.3090    -1.2140 C.2   1 <1>  -0.3000 
 14 N        5.5900     3.9640     1.6340 N.2   1 <1>  -0.4100 
 15 C        5.9560     2.9900     0.8780 C.2   1 <1>   0.4620 
 16 C        7.2480     2.8610     0.2260 C.ar  1 <1>   0.0540 
 17 C        8.2350     3.8380     0.3740 C.ar  1 <1>  -0.1500 
 18 C        7.5620     1.7600    -0.5750 C.ar  1 <1>  -0.1500 
 19 C        9.4700     3.7280    -0.2400 C.ar  1 <1>  -0.1500 
 20 C        8.7940     1.6410    -1.1920 C.ar  1 <1>  -0.1500 
 21 C        9.7580     2.6210    -1.0320 C.ar  1 <1>   0.0820 
 22 O       10.9390     2.4310    -1.6680 O.3   1 <1>  -0.3620 
 23 C       11.9890     3.3660    -1.5630 C.3   1 <1>   0.0400 
 24 H        0.4530     3.2440    -1.2490 H     1 <1>   0.3700 
 25 H        2.7350     0.9570     1.5130 H     1 <1>   0.0800 
 26 H        2.4220     2.1450     2.7400 H     1 <1>   0.0800 
 27 H        1.8200     4.4630     1.8780 H     1 <1>   0.0800 
 28 H        0.3680     4.3130     0.9390 H     1 <1>   0.0800 
 29 H       -1.3310     0.8480    -1.1950 H     1 <1>   0.0800 
 30 H       -0.2700     1.1660    -2.5500 H     1 <1>   0.0800 
 31 H        1.9180     5.8950    -0.1490 H     1 <1>   0.1500 
 32 H       -2.4290     3.0460    -1.5350 H     1 <1>   0.0800 
 33 H       -2.5450     2.0600    -2.9690 H     1 <1>   0.0800 
 34 H       -1.3800     3.3570    -2.9110 H     1 <1>   0.0800 
 35 H        3.0230     3.2590    -1.3300 H     1 <1>   0.1500 
 36 H        3.2550     4.8910    -2.0020 H     1 <1>   0.1500 
 37 H        8.0300     4.7020     0.9820 H     1 <1>   0.1500 
 38 H        6.8300     0.9840    -0.7170 H     1 <1>   0.1500 
 39 H       10.1910     4.5090    -0.0920 H     1 <1>   0.1500 
 40 H        9.0160     0.7860    -1.8040 H     1 <1>   0.1500 
 41 H       12.8170     3.0040    -2.1450 H     1 <1>   0.0800 
 42 H       12.2780     3.4530    -0.5300 H     1 <1>   0.0800 
 43 H       11.6550     4.3120    -1.9520 H     1 <1>   0.0800 
@<TRIPOS>BOND
  1   1   2  2   
  2   2   3  am  
  3   2   4  am  
  4   3   5  1   
  5   3   6  1   
  6   4   7  1   
  7   4  24  1   
  8   5   8  1   
  9   5  25  1   
 10   5  26  1   
 11   6   9  1   
 12   6  27  1   
 13   6  28  1   
 14   7  10  1   
 15   7  29  1   
 16   7  30  1   
 17   8  11  1   
 18   8  12  2   
 19   9  13  2   
 20   9  31  1   
 21  10  32  1   
 22  10  33  1   
 23  10  34  1   
 24  11  14  1   
 25  12  15  1   
 26  13  35  1   
 27  13  36  1   
 28  14  15  2   
 29  15  16  1   
 30  16  17  ar  
 31  16  18  ar  
 32  17  19  ar  
 33  17  37  1   
 34  18  20  ar  
 35  18  38  1   
 36  19  21  ar  
 37  19  39  1   
 38  20  21  ar  
 39  20  40  1   
 40  21  22  1   
 41  22  23  1   
 42  23  41  1   
 43  23  42  1   
 44  23  43  1   
@<TRIPOS>SUBSTRUCTURE
  1 ****  12 GROUP 4 **** **** 0

# MOE 2024.06 (io_trps.svl 2023.06)
