@<TRIPOS>MOLECULE
1-(Furan-2-carbonyl)-piperidine-4-carboxylic acid (5-benzyl-[1,3,4]thiadiazol-2-
48 51 1 0 0 
SMALL
USER_CHARGES


@<TRIPOS>ATOM
  1 S       -0.4820     0.6510    -0.2400 S.3   1 <1>  -0.0800 
  2 C       -1.7570     0.1000     0.7950 C.2   1 <1>   0.4420 
  3 C        0.3980     1.0720     1.1900 C.2   1 <1>   0.1980 
  4 N       -1.4680     0.2400     2.0370 N.2   1 <1>  -0.3380 
  5 N       -2.8800    -0.3980     0.1680 N.am  1 <1>  -0.4940 
  6 N       -0.2380     0.7970     2.2550 N.2   1 <1>  -0.3380 
  7 C        1.7700     1.6990     1.0350 C.3   1 <1>   0.1640 
  8 C       -4.0100    -0.9370     0.7140 C.2   1 <1>   0.5690 
  9 C        1.7010     2.9880     0.2260 C.ar  1 <1>  -0.1440 
 10 O       -4.1620    -1.0900     1.8980 O.2   1 <1>  -0.5700 
 11 C       -5.1190    -1.3610    -0.2540 C.3   1 <1>  -0.0190 
 12 C        0.9910     4.0730     0.7170 C.ar  1 <1>  -0.1500 
 13 C        2.3350     3.0910    -1.0040 C.ar  1 <1>  -0.1500 
 14 C       -6.4990    -1.4770     0.4270 C.3   1 <1>  -0.1600 
 15 C       -4.7740    -2.6930    -0.9470 C.3   1 <1>  -0.1600 
 16 C        0.9160     5.2480    -0.0110 C.ar  1 <1>  -0.1500 
 17 C        2.2600     4.2650    -1.7320 C.ar  1 <1>  -0.1500 
 18 C       -7.5920    -1.9190    -0.5500 C.3   1 <1>   0.1400 
 19 C       -5.8700    -3.1170    -1.9290 C.3   1 <1>   0.1400 
 20 C        1.5500     5.3440    -1.2360 C.ar  1 <1>  -0.1500 
 21 N       -7.1810    -3.1810    -1.2250 N.am  1 <1>  -0.6600 
 22 C       -7.8550    -4.3820    -1.0630 C.2   1 <1>   0.7150 
 23 O       -7.2560    -5.4180    -1.2960 O.2   1 <1>  -0.5700 
 24 C       -9.2440    -4.4260    -0.6530 C.2   1 <1>   0.0550 
 25 O       -9.6690    -5.3130     0.2430 O.3   1 <1>  -0.2800 
 26 C      -10.3120    -3.6710    -1.0410 C.2   1 <1>  -0.1500 
 27 C      -10.9570    -5.1450     0.4350 C.2   1 <1>  -0.0100 
 28 C      -11.4200    -4.1370    -0.3330 C.2   1 <1>  -0.1500 
 29 H       -2.8520    -0.3500    -0.8450 H     1 <1>   0.3700 
 30 H        2.4240     0.9910     0.5610 H     1 <1>   0.0800 
 31 H        2.1680     1.9150     2.0100 H     1 <1>   0.0800 
 32 H       -5.1960    -0.5980    -1.0080 H     1 <1>   0.0800 
 33 H        0.4900     4.0080     1.6690 H     1 <1>   0.1500 
 34 H        2.8910     2.2610    -1.4050 H     1 <1>   0.1500 
 35 H       -6.7690    -0.5290     0.8590 H     1 <1>   0.0800 
 36 H       -6.4490    -2.1930     1.2300 H     1 <1>   0.0800 
 37 H       -4.6570    -3.4680    -0.2070 H     1 <1>   0.0800 
 38 H       -3.8440    -2.6090    -1.4790 H     1 <1>   0.0800 
 39 H        0.3630     6.0860     0.3770 H     1 <1>   0.1500 
 40 H        2.7530     4.3410    -2.6860 H     1 <1>   0.1500 
 41 H       -7.7520    -1.1580    -1.2940 H     1 <1>   0.0800 
 42 H       -8.5070    -2.0530    -0.0020 H     1 <1>   0.0800 
 43 H       -5.6190    -4.0710    -2.3600 H     1 <1>   0.0800 
 44 H       -5.9420    -2.4040    -2.7320 H     1 <1>   0.0800 
 45 H        1.4910     6.2580    -1.8030 H     1 <1>   0.1500 
 46 H      -10.3230    -2.8710    -1.7600 H     1 <1>   0.1500 
 47 H      -11.4680    -5.7850     1.1340 H     1 <1>   0.1500 
 48 H      -12.4240    -3.7570    -0.4070 H     1 <1>   0.1500 
@<TRIPOS>BOND
  1   1   2  1   
  2   1   3  1   
  3   2   4  2   
  4   2   5  1   
  5   3   6  2   
  6   3   7  1   
  7   4   6  1   
  8   5   8  am  
  9   5  29  1   
 10   7   9  1   
 11   7  30  1   
 12   7  31  1   
 13   8  10  2   
 14   8  11  1   
 15   9  12  ar  
 16   9  13  ar  
 17  11  14  1   
 18  11  15  1   
 19  11  32  1   
 20  12  16  ar  
 21  12  33  1   
 22  13  17  ar  
 23  13  34  1   
 24  14  18  1   
 25  14  35  1   
 26  14  36  1   
 27  15  19  1   
 28  15  37  1   
 29  15  38  1   
 30  16  20  ar  
 31  16  39  1   
 32  17  20  ar  
 33  17  40  1   
 34  18  21  1   
 35  18  41  1   
 36  18  42  1   
 37  19  21  1   
 38  19  43  1   
 39  19  44  1   
 40  20  45  1   
 41  21  22  am  
 42  22  23  2   
 43  22  24  1   
 44  24  25  1   
 45  24  26  2   
 46  25  27  1   
 47  26  28  1   
 48  26  46  1   
 49  27  28  2   
 50  27  47  1   
 51  28  48  1   
@<TRIPOS>SUBSTRUCTURE
  1 ****   8 GROUP 4 **** **** 0

# MOE 2024.06 (io_trps.svl 2023.06)
