@<TRIPOS>MOLECULE
1-[3-(3,4-Dimethoxy-phenyl)-[1,2,4]oxadiazol-5-ylmethyl]-1-methyl-3-propyl-urea
46 47 1 0 0 
SMALL
USER_CHARGES


@<TRIPOS>ATOM
  1 O       -0.0220     0.5410    -0.8940 O.2   1 <1>  -0.5700 
  2 C        0.3210     1.5110    -0.2450 C.2   1 <1>   0.6900 
  3 N        1.5920     1.6040     0.2480 N.am  1 <1>  -0.6600 
  4 N       -0.5510     2.5220    -0.0190 N.am  1 <1>  -0.7300 
  5 C        2.6430     0.6450    -0.2180 C.3   1 <1>   0.3200 
  6 C        2.0040     2.5430     1.3310 C.3   1 <1>   0.0600 
  7 C       -1.9440     2.5690    -0.5050 C.3   1 <1>   0.1400 
  8 C        3.9270     1.3560    -0.6210 C.2   1 <1>   0.2980 
  9 C       -2.8270     3.1970     0.5730 C.3   1 <1>  -0.1600 
 10 O        3.9120     2.1170    -1.6840 O.3   1 <1>  -0.0190 
 11 N        5.0410     1.2940    -0.0120 N.2   1 <1>  -0.5650 
 12 C       -4.2900     3.2690     0.1220 C.3   1 <1>  -0.2400 
 13 N        5.1200     2.5820    -1.7570 N.2   1 <1>  -0.4100 
 14 C        5.7910     2.0990    -0.7720 C.2   1 <1>   0.4620 
 15 C        7.1900     2.3730    -0.4850 C.ar  1 <1>   0.0540 
 16 C        7.8510     1.7850     0.5930 C.ar  1 <1>  -0.1500 
 17 C        7.9340     3.2420    -1.2820 C.ar  1 <1>  -0.1500 
 18 C        9.1810     2.0380     0.8750 C.ar  1 <1>   0.0820 
 19 C        9.2620     3.5190    -1.0140 C.ar  1 <1>  -0.1500 
 20 O        9.6760     1.3720     1.9570 O.3   1 <1>  -0.3620 
 21 C        9.9070     2.9310     0.0710 C.ar  1 <1>   0.0820 
 22 C       11.0110     0.9170     1.9810 C.3   1 <1>   0.0400 
 23 O       11.2060     3.2210     0.3690 O.3   1 <1>  -0.3630 
 24 C       11.9200     4.2420    -0.2940 C.3   1 <1>   0.0400 
 25 H       -0.1730     3.3880     0.3540 H     1 <1>   0.3700 
 26 H        2.2950     0.0770    -1.0630 H     1 <1>   0.0800 
 27 H        2.8590    -0.0460     0.5770 H     1 <1>   0.0800 
 28 H        1.1510     2.8550     1.9080 H     1 <1>   0.0800 
 29 H        2.4790     3.4070     0.9000 H     1 <1>   0.0800 
 30 H        2.6990     2.0580     1.9940 H     1 <1>   0.0800 
 31 H       -2.2870     1.5720    -0.7270 H     1 <1>   0.0800 
 32 H       -1.9840     3.1530    -1.4090 H     1 <1>   0.0800 
 33 H       -2.4780     4.1900     0.7920 H     1 <1>   0.0800 
 34 H       -2.7660     2.6030     1.4690 H     1 <1>   0.0800 
 35 H       -4.3820     3.8710    -0.7660 H     1 <1>   0.0800 
 36 H       -4.8930     3.7100     0.8970 H     1 <1>   0.0800 
 37 H       -4.6690     2.2840    -0.0860 H     1 <1>   0.0800 
 38 H        7.3180     1.1060     1.2340 H     1 <1>   0.1500 
 39 H        7.4630     3.7130    -2.1280 H     1 <1>   0.1500 
 40 H        9.7750     4.1990    -1.6670 H     1 <1>   0.1500 
 41 H       11.0810     0.1210     2.6990 H     1 <1>   0.0800 
 42 H       11.6490     1.7300     2.2770 H     1 <1>   0.0800 
 43 H       11.2790     0.5580     1.0030 H     1 <1>   0.0800 
 44 H       12.8870     4.3260     0.1690 H     1 <1>   0.0800 
 45 H       11.3840     5.1680    -0.1890 H     1 <1>   0.0800 
 46 H       12.0330     3.9740    -1.3290 H     1 <1>   0.0800 
@<TRIPOS>BOND
  1   1   2  2   
  2   2   3  am  
  3   2   4  am  
  4   3   5  1   
  5   3   6  1   
  6   4   7  1   
  7   4  25  1   
  8   5   8  1   
  9   5  26  1   
 10   5  27  1   
 11   6  28  1   
 12   6  29  1   
 13   6  30  1   
 14   7   9  1   
 15   7  31  1   
 16   7  32  1   
 17   8  10  1   
 18   8  11  2   
 19   9  12  1   
 20   9  33  1   
 21   9  34  1   
 22  10  13  1   
 23  11  14  1   
 24  12  35  1   
 25  12  36  1   
 26  12  37  1   
 27  13  14  2   
 28  14  15  1   
 29  15  16  ar  
 30  15  17  ar  
 31  16  18  ar  
 32  16  38  1   
 33  17  19  ar  
 34  17  39  1   
 35  18  20  1   
 36  18  21  ar  
 37  19  21  ar  
 38  19  40  1   
 39  20  22  1   
 40  21  23  1   
 41  22  41  1   
 42  22  42  1   
 43  22  43  1   
 44  23  24  1   
 45  24  44  1   
 46  24  45  1   
 47  24  46  1   
@<TRIPOS>SUBSTRUCTURE
  1 ****  11 GROUP 4 **** **** 0

# MOE 2024.06 (io_trps.svl 2023.06)
