@<TRIPOS>MOLECULE
(4,5-Dimethyl-oxazol-2-ylsulfanyl)-acetic acid
20 20 1 0 0 
SMALL
USER_CHARGES


@<TRIPOS>ATOM
  1 S       -0.1890     0.5610    -0.1000 S.3   1 <1>  -0.2860 
  2 C       -1.7410    -0.3190     0.0060 C.2   1 <1>   0.5340 
  3 C        1.0880    -0.7900     0.0230 C.3   1 <1>  -0.0360 
  4 O       -2.8450     0.3840    -0.0540 O.3   1 <1>  -0.2800 
  5 N       -1.8830    -1.5880     0.1360 N.2   1 <1>  -0.5650 
  6 C        2.5030    -0.2550    -0.0460 C.2   1 <1>   0.9060 
  7 C       -3.8000    -0.5020     0.0460 C.2   1 <1>  -0.0400 
  8 C       -3.2250    -1.7140     0.1630 C.2   1 <1>   0.0460 
  9 O        3.0840     0.0360     1.0060 O.co2 1 <1>  -0.9000 
 10 O        3.0610    -0.1830    -1.1480 O.co2 1 <1>  -0.9000 
 11 C       -5.2360    -0.0220     0.0130 C.3   1 <1>  -0.0600 
 12 C       -3.8430    -3.0870     0.3100 C.3   1 <1>  -0.0590 
 13 H        0.9170    -1.4660    -0.7910 H     1 <1>   0.0800 
 14 H        0.9360    -1.2880     0.9600 H     1 <1>   0.0800 
 15 H       -5.4060     0.6620     0.8240 H     1 <1>   0.0800 
 16 H       -5.9160    -0.8490     0.1040 H     1 <1>   0.0800 
 17 H       -5.4250     0.4850    -0.9150 H     1 <1>   0.0800 
 18 H       -3.5110    -3.5330     1.2300 H     1 <1>   0.0800 
 19 H       -3.5300    -3.7090    -0.5090 H     1 <1>   0.0800 
 20 H       -4.9140    -3.0260     0.3150 H     1 <1>   0.0800 
@<TRIPOS>BOND
  1   1   2  1   
  2   1   3  1   
  3   2   4  1   
  4   2   5  2   
  5   3   6  1   
  6   3  13  1   
  7   3  14  1   
  8   4   7  1   
  9   5   8  1   
 10   6   9  ar  
 11   6  10  ar  
 12   7   8  2   
 13   7  11  1   
 14   8  12  1   
 15  11  15  1   
 16  11  16  1   
 17  11  17  1   
 18  12  18  1   
 19  12  19  1   
 20  12  20  1   
@<TRIPOS>SUBSTRUCTURE
  1 ****   2 GROUP 4 **** **** 0

# MOE 2024.06 (io_trps.svl 2023.06)
