@<TRIPOS>MOLECULE
1-(4-Ethoxy-phenyl)-5-oxo-pyrrolidine-3-carboxylic acid (pyridin-3-ylmethyl)-ami
46 48 1 0 0 
SMALL
USER_CHARGES


@<TRIPOS>ATOM
  1 O        1.6170    -0.5960    -2.1320 O.2   1 <1>  -0.5700 
  2 C        2.4770    -0.8320    -1.3200 C.2   1 <1>   0.5690 
  3 N        2.5590    -1.9240    -0.5050 N.am  1 <1>  -0.4770 
  4 C        3.6330     0.1040    -1.1040 C.3   1 <1>  -0.0990 
  5 C        1.6080    -2.9500    -0.3350 C.ar  1 <1>   0.1170 
  6 C        3.7460    -1.8260     0.3710 C.3   1 <1>   0.1400 
  7 C        4.6150    -0.7450    -0.2860 C.3   1 <1>  -0.0190 
  8 C        2.0040    -4.2740    -0.1720 C.ar  1 <1>  -0.1500 
  9 C        0.2470    -2.6640    -0.3170 C.ar  1 <1>  -0.1500 
 10 C        5.4240     0.0640     0.7130 C.2   1 <1>   0.5690 
 11 C        1.0740    -5.2820     0.0170 C.ar  1 <1>  -0.1500 
 12 C       -0.6880    -3.6660    -0.1290 C.ar  1 <1>  -0.1500 
 13 O        4.9110     0.4210     1.7440 O.2   1 <1>  -0.5700 
 14 N        6.7080     0.3760     0.4180 N.am  1 <1>  -0.7300 
 15 C       -0.2840    -4.9800     0.0410 C.ar  1 <1>   0.0820 
 16 C        7.5750     1.1980     1.2810 C.3   1 <1>   0.2840 
 17 O       -1.2650    -5.9020     0.2220 O.3   1 <1>  -0.3630 
 18 C        8.6140     1.8660     0.4040 C.ar  1 <1>  -0.1430 
 19 C       -0.9590    -7.2700     0.3590 C.3   1 <1>   0.1200 
 20 C        8.3160     3.0550    -0.2460 C.ar  1 <1>   0.1600 
 21 C        9.8650     1.3080     0.2310 C.ar  1 <1>  -0.1500 
 22 C       -2.2700    -8.0330     0.5220 C.3   1 <1>  -0.2400 
 23 N        9.1460     3.7150    -1.0370 N.ar  1 <1>  -0.6200 
 24 C       10.7430     1.9850    -0.5880 C.ar  1 <1>  -0.1500 
 25 C       10.3400     3.1660    -1.1880 C.ar  1 <1>   0.1600 
 26 H        3.2860     0.9540    -0.5440 H     1 <1>   0.0800 
 27 H        4.0530     0.4230    -2.0400 H     1 <1>   0.0800 
 28 H        4.2720    -2.7610     0.4310 H     1 <1>   0.0800 
 29 H        3.4220    -1.5300     1.3550 H     1 <1>   0.0800 
 30 H        5.2870    -1.2400    -0.9640 H     1 <1>   0.0800 
 31 H        3.0470    -4.5260    -0.2010 H     1 <1>   0.1500 
 32 H       -0.0830    -1.6490    -0.4510 H     1 <1>   0.1500 
 33 H        1.4240    -6.2890     0.1400 H     1 <1>   0.1500 
 34 H       -1.7370    -3.4340    -0.1170 H     1 <1>   0.1500 
 35 H        7.1310     0.1140    -0.4740 H     1 <1>   0.3700 
 36 H        8.0500     0.5690     2.0150 H     1 <1>   0.0800 
 37 H        6.9870     1.9380     1.7990 H     1 <1>   0.0800 
 38 H       -0.3350    -7.3950     1.2270 H     1 <1>   0.0800 
 39 H       -0.4390    -7.5920    -0.5270 H     1 <1>   0.0800 
 40 H        7.3380     3.4880    -0.1100 H     1 <1>   0.1500 
 41 H       10.1500     0.3880     0.7110 H     1 <1>   0.1500 
 42 H       -2.7890    -7.6900     1.4000 H     1 <1>   0.0800 
 43 H       -2.0700    -9.0830     0.6280 H     1 <1>   0.0800 
 44 H       -2.8920    -7.8860    -0.3430 H     1 <1>   0.0800 
 45 H       11.7340     1.6040    -0.7630 H     1 <1>   0.1500 
 46 H       11.0360     3.6850    -1.8250 H     1 <1>   0.1500 
@<TRIPOS>BOND
  1   1   2  2   
  2   2   3  am  
  3   2   4  1   
  4   3   5  1   
  5   3   6  1   
  6   4   7  1   
  7   4  26  1   
  8   4  27  1   
  9   5   8  ar  
 10   5   9  ar  
 11   6   7  1   
 12   6  28  1   
 13   6  29  1   
 14   7  10  1   
 15   7  30  1   
 16   8  11  ar  
 17   8  31  1   
 18   9  12  ar  
 19   9  32  1   
 20  10  13  2   
 21  10  14  am  
 22  11  15  ar  
 23  11  33  1   
 24  12  15  ar  
 25  12  34  1   
 26  14  16  1   
 27  14  35  1   
 28  15  17  1   
 29  16  18  1   
 30  16  36  1   
 31  16  37  1   
 32  17  19  1   
 33  18  20  ar  
 34  18  21  ar  
 35  19  22  1   
 36  19  38  1   
 37  19  39  1   
 38  20  23  ar  
 39  20  40  1   
 40  21  24  ar  
 41  21  41  1   
 42  22  42  1   
 43  22  43  1   
 44  22  44  1   
 45  23  25  ar  
 46  24  25  ar  
 47  24  45  1   
 48  25  46  1   
@<TRIPOS>SUBSTRUCTURE
  1 ****   6 GROUP 4 **** **** 0

# MOE 2024.06 (io_trps.svl 2023.06)
