@<TRIPOS>MOLECULE
7-(2-Hydroxy-propyl)-1,3-dimethyl-8-[(pyridin-3-ylmethyl)-amino]-3,7-dihydro-pur
46 48 1 0 0 
SMALL
USER_CHARGES


@<TRIPOS>ATOM
  1 O        1.0290     0.8960     1.5590 O.2   1 <1>  -0.5750 
  2 C        2.0120     1.2940     0.9690 C.2   1 <1>   0.6860 
  3 N        2.0590     2.6000     0.4920 N.am  1 <1>  -0.4260 
  4 N        3.0910     0.4410     0.7710 N.am  1 <1>  -0.4420 
  5 C        3.1770     3.0830    -0.1750 C.2   1 <1>   0.6990 
  6 C        0.8880     3.5010     0.7360 C.3   1 <1>   0.0510 
  7 C        4.1790     0.9210     0.0680 C.2   1 <1>   0.4200 
  8 C        3.0540    -0.9620     1.2820 C.3   1 <1>   0.0510 
  9 O        3.2400     4.2460    -0.5370 O.2   1 <1>  -0.5750 
 10 C        4.2610     2.1790    -0.4120 C.2   1 <1>   0.2700 
 11 N        5.3240     0.2570    -0.2580 N.pl3 1 <1>  -0.7040 
 12 N        5.5050     2.2720    -1.0650 N.pl3 1 <1>  -0.7680 
 13 C        6.1070     1.0950    -0.9310 C.cat 1 <1>   1.0680 
 14 C        6.0010     3.5060    -1.7530 C.3   1 <1>   0.3470 
 15 N        7.3210     0.8210    -1.3910 N.pl3 1 <1>  -0.7180 
 16 C        6.6660     4.5160    -0.7910 C.3   1 <1>   0.1920 
 17 C        8.1860    -0.3310    -1.0830 C.3   1 <1>   0.3040 
 18 O        7.4250     5.3720    -1.5620 O.3   1 <1>  -0.6840 
 19 C        7.6230     3.9130     0.2420 C.3   1 <1>  -0.2480 
 20 C        9.4030     0.2260    -0.3820 C.ar  1 <1>  -0.1520 
 21 C       10.5690     0.4740    -1.0930 C.ar  1 <1>   0.1520 
 22 C        9.3730     0.5150     0.9690 C.ar  1 <1>  -0.1580 
 23 N       11.6700     0.9910    -0.5800 N.ar  1 <1>  -0.6250 
 24 C       10.5190     1.0460     1.5200 C.ar  1 <1>  -0.1580 
 25 C       11.6230     1.2620     0.7140 C.ar  1 <1>   0.1520 
 26 H       -0.0320     2.9530     0.6200 H     1 <1>   0.0710 
 27 H        0.8780     4.3220     0.0410 H     1 <1>   0.0710 
 28 H        0.9350     3.8900     1.7380 H     1 <1>   0.0710 
 29 H        2.3770    -1.0420     2.1170 H     1 <1>   0.0710 
 30 H        4.0280    -1.2690     1.6160 H     1 <1>   0.0710 
 31 H        2.7130    -1.6220     0.5030 H     1 <1>   0.0710 
 32 H        5.5380    -0.7110    -0.0420 H     1 <1>   0.4440 
 33 H        5.1810     3.9920    -2.2540 H     1 <1>   0.0710 
 34 H        6.7170     3.2240    -2.5060 H     1 <1>   0.0710 
 35 H        7.8380     1.5920    -1.8150 H     1 <1>   0.4440 
 36 H        5.9060     5.1030    -0.3020 H     1 <1>   0.0710 
 37 H        8.4710    -0.8280    -1.9960 H     1 <1>   0.0710 
 38 H        7.6850    -1.0400    -0.4470 H     1 <1>   0.0710 
 39 H        7.8230     6.0740    -1.0070 H     1 <1>   0.3940 
 40 H        8.4080     3.3550    -0.2370 H     1 <1>   0.0710 
 41 H        7.0940     3.2630     0.9150 H     1 <1>   0.0710 
 42 H        8.0660     4.6940     0.8340 H     1 <1>   0.0710 
 43 H       10.6070     0.2430    -2.1450 H     1 <1>   0.1420 
 44 H        8.5050     0.3400     1.5810 H     1 <1>   0.1420 
 45 H       10.5650     1.2910     2.5660 H     1 <1>   0.1420 
 46 H       12.5140     1.6780     1.1560 H     1 <1>   0.1420 
@<TRIPOS>BOND
  1   1   2  2   
  2   2   3  am  
  3   2   4  am  
  4   3   5  am  
  5   3   6  1   
  6   4   7  1   
  7   4   8  1   
  8   5   9  2   
  9   5  10  1   
 10   6  26  1   
 11   6  27  1   
 12   6  28  1   
 13   7  10  2   
 14   7  11  1   
 15   8  29  1   
 16   8  30  1   
 17   8  31  1   
 18  10  12  1   
 19  11  13  ar  
 20  11  32  1   
 21  12  13  ar  
 22  12  14  1   
 23  13  15  ar  
 24  14  16  1   
 25  14  33  1   
 26  14  34  1   
 27  15  17  1   
 28  15  35  1   
 29  16  18  1   
 30  16  19  1   
 31  16  36  1   
 32  17  20  1   
 33  17  37  1   
 34  17  38  1   
 35  18  39  1   
 36  19  40  1   
 37  19  41  1   
 38  19  42  1   
 39  20  21  ar  
 40  20  22  ar  
 41  21  23  ar  
 42  21  43  1   
 43  22  24  ar  
 44  22  44  1   
 45  23  25  ar  
 46  24  25  ar  
 47  24  45  1   
 48  25  46  1   
@<TRIPOS>SUBSTRUCTURE
  1 ****  13 GROUP 4 **** **** 0

# MOE 2024.06 (io_trps.svl 2023.06)
