@<TRIPOS>MOLECULE
2-Cyclohexyl-N-(3-p-tolyl-[1,2,4]oxadiazol-5-ylmethyl)-acetamide
46 48 1 0 0 
SMALL
USER_CHARGES


@<TRIPOS>ATOM
  1 O       -1.0290     1.4260    -2.7860 O.2   1 <1>  -0.5700 
  2 C       -1.1360     2.2720    -1.9370 C.2   1 <1>   0.5690 
  3 N       -2.3490     2.5250    -1.4000 N.am  1 <1>  -0.7300 
  4 C        0.1070     3.0350    -1.5070 C.3   1 <1>  -0.0990 
  5 C       -2.7330     3.4610    -0.3150 C.3   1 <1>   0.3200 
  6 C        1.0520     2.1990    -0.6220 C.3   1 <1>  -0.0800 
  7 C       -4.1440     3.1850     0.1910 C.2   1 <1>   0.2980 
  8 C        0.3940     1.7970     0.7120 C.3   1 <1>  -0.1600 
  9 C        2.3580     2.9710    -0.3630 C.3   1 <1>  -0.1600 
 10 O       -4.5810     3.8990     1.1940 O.3   1 <1>  -0.0190 
 11 N       -4.9640     2.3230    -0.2600 N.2   1 <1>  -0.5650 
 12 C        1.3590     0.9900     1.5910 C.3   1 <1>  -0.1600 
 13 C        3.3230     2.1660     0.5180 C.3   1 <1>  -0.1600 
 14 N       -5.7790     3.4540     1.4010 N.2   1 <1>  -0.4100 
 15 C       -6.0130     2.5220     0.5450 C.2   1 <1>   0.4620 
 16 C        2.6610     1.7610     1.8410 C.3   1 <1>  -0.1600 
 17 C       -7.2450     1.7580     0.4350 C.ar  1 <1>   0.0540 
 18 C       -7.4040     0.7500    -0.5170 C.ar  1 <1>  -0.1500 
 19 C       -8.3270     2.0030     1.2830 C.ar  1 <1>  -0.1500 
 20 C       -8.5780     0.0260    -0.6190 C.ar  1 <1>  -0.1500 
 21 C       -9.5030     1.2820     1.1850 C.ar  1 <1>  -0.1500 
 22 C       -9.6380     0.2880     0.2310 C.ar  1 <1>  -0.1430 
 23 C      -10.9270    -0.5050     0.1240 C.3   1 <1>  -0.0970 
 24 H       -3.1240     1.9390    -1.7300 H     1 <1>   0.3700 
 25 H       -0.1620     3.9440    -1.0050 H     1 <1>   0.0800 
 26 H        0.6300     3.3120    -2.4050 H     1 <1>   0.0800 
 27 H       -2.6880     4.4690    -0.6860 H     1 <1>   0.0800 
 28 H       -2.0460     3.3620     0.5050 H     1 <1>   0.0800 
 29 H        1.2980     1.2980    -1.1610 H     1 <1>   0.0800 
 30 H       -0.4820     1.1990     0.5250 H     1 <1>   0.0800 
 31 H        0.0940     2.6790     1.2480 H     1 <1>   0.0800 
 32 H        2.1370     3.9060     0.1230 H     1 <1>   0.0800 
 33 H        2.8420     3.1920    -1.2990 H     1 <1>   0.0800 
 34 H        1.5870     0.0560     1.1040 H     1 <1>   0.0800 
 35 H        0.8880     0.7640     2.5320 H     1 <1>   0.0800 
 36 H        4.2030     2.7520     0.7200 H     1 <1>   0.0800 
 37 H        3.6310     1.2800    -0.0110 H     1 <1>   0.0800 
 38 H        3.3380     1.1490     2.4100 H     1 <1>   0.0800 
 39 H        2.4480     2.6440     2.4190 H     1 <1>   0.0800 
 40 H       -6.5950     0.5270    -1.1910 H     1 <1>   0.1500 
 41 H       -8.2470     2.7710     2.0320 H     1 <1>   0.1500 
 42 H       -8.6630    -0.7450    -1.3650 H     1 <1>   0.1500 
 43 H      -10.3150     1.4980     1.8570 H     1 <1>   0.1500 
 44 H      -11.0800    -0.8410    -0.8860 H     1 <1>   0.0800 
 45 H      -11.7670     0.1030     0.4080 H     1 <1>   0.0800 
 46 H      -10.8830    -1.3610     0.7730 H     1 <1>   0.0800 
@<TRIPOS>BOND
  1   1   2  2   
  2   2   3  am  
  3   2   4  1   
  4   3   5  1   
  5   3  24  1   
  6   4   6  1   
  7   4  25  1   
  8   4  26  1   
  9   5   7  1   
 10   5  27  1   
 11   5  28  1   
 12   6   8  1   
 13   6   9  1   
 14   6  29  1   
 15   7  10  1   
 16   7  11  2   
 17   8  12  1   
 18   8  30  1   
 19   8  31  1   
 20   9  13  1   
 21   9  32  1   
 22   9  33  1   
 23  10  14  1   
 24  11  15  1   
 25  12  16  1   
 26  12  34  1   
 27  12  35  1   
 28  13  16  1   
 29  13  36  1   
 30  13  37  1   
 31  14  15  2   
 32  15  17  1   
 33  16  38  1   
 34  16  39  1   
 35  17  18  ar  
 36  17  19  ar  
 37  18  20  ar  
 38  18  40  1   
 39  19  21  ar  
 40  19  41  1   
 41  20  22  ar  
 42  20  42  1   
 43  21  22  ar  
 44  21  43  1   
 45  22  23  1   
 46  23  44  1   
 47  23  45  1   
 48  23  46  1   
@<TRIPOS>SUBSTRUCTURE
  1 ****   7 GROUP 4 **** **** 0

# MOE 2024.06 (io_trps.svl 2023.06)
