@<TRIPOS>MOLECULE
N-Bicyclo[2.2.1]hept-2-yl-2-[5-(5-chloro-2-methoxy-phenyl)-4H-[1,2,4]triazol-3-y
47 50 1 0 0 
SMALL
USER_CHARGES


@<TRIPOS>ATOM
  1 CL       0.7390     1.3860     1.7230 Cl    1 <1>  -0.1770 
  2 C       -0.3020     2.3460     0.7030 C.ar  1 <1>   0.1770 
  3 C       -1.5480     2.7180     1.1610 C.ar  1 <1>  -0.1500 
  4 C        0.1410     2.7180    -0.5480 C.ar  1 <1>  -0.1500 
  5 C       -2.4100     3.4860     0.3740 C.ar  1 <1>   0.0530 
  6 C       -0.6880     3.4780    -1.3520 C.ar  1 <1>  -0.1500 
  7 C       -1.9530     3.8650    -0.9070 C.ar  1 <1>   0.0830 
  8 C       -3.7090     3.8440     0.9170 C.2   1 <1>   0.1330 
  9 O       -2.7730     4.6150    -1.6970 O.3   1 <1>  -0.3630 
 10 N       -4.1700     3.5110     2.0960 N.2   1 <1>  -0.3380 
 11 N       -4.6290     4.5750     0.2730 N.pl3 1 <1>   0.0330 
 12 C       -2.3990     5.0450    -2.9910 C.3   1 <1>   0.0400 
 13 N       -5.3960     4.0250     2.2300 N.2   1 <1>  -0.3380 
 14 C       -5.6290     4.6450     1.1310 C.2   1 <1>   0.2430 
 15 S       -7.1430     5.5250     0.7590 S.3   1 <1>  -0.2860 
 16 C       -8.1360     5.3040     2.3190 C.3   1 <1>   0.1310 
 17 C       -9.5170     5.9340     2.2070 C.2   1 <1>   0.5690 
 18 O      -10.1540     6.1010     3.2180 O.2   1 <1>  -0.5700 
 19 N      -10.0020     6.2850     0.9870 N.am  1 <1>  -0.7300 
 20 C      -11.3180     6.9080     0.7250 C.3   1 <1>   0.2200 
 21 C      -12.2110     6.0120    -0.3160 C.3   1 <1>  -0.0800 
 22 C      -11.0970     8.4100     0.0340 C.3   1 <1>  -0.1600 
 23 C      -12.1210     7.2470    -0.8260 C.3   1 <1>  -0.1600 
 24 C      -13.1300     6.0800    -1.6680 C.3   1 <1>  -0.1600 
 25 C      -12.0010     8.4800    -1.3280 C.3   1 <1>  -0.0800 
 26 C      -12.9100     7.5900    -2.3580 C.3   1 <1>  -0.1600 
 27 H       -1.8480     2.4030     2.1450 H     1 <1>   0.1500 
 28 H        1.1170     2.4150    -0.8820 H     1 <1>   0.1500 
 29 H       -0.3210     3.7550    -2.3220 H     1 <1>   0.1500 
 30 H       -4.5410     4.9700    -0.6650 H     1 <1>   0.2700 
 31 H       -3.2100     5.6180    -3.4040 H     1 <1>   0.0800 
 32 H       -2.2140     4.1830    -3.6080 H     1 <1>   0.0800 
 33 H       -1.5200     5.6620    -2.9160 H     1 <1>   0.0800 
 34 H       -7.5810     5.7610     3.1170 H     1 <1>   0.0800 
 35 H       -8.2230     4.2480     2.4970 H     1 <1>   0.0800 
 36 H       -9.4040     6.1610     0.1680 H     1 <1>   0.3700 
 37 H      -11.8560     7.0150     1.6570 H     1 <1>   0.0800 
 38 H      -11.5160     5.2290    -0.5880 H     1 <1>   0.0800 
 39 H      -10.0560     8.5720    -0.2020 H     1 <1>   0.0800 
 40 H      -11.3980     9.1770     0.7290 H     1 <1>   0.0800 
 41 H      -11.1630     6.9140    -1.4270 H     1 <1>   0.0800 
 42 H      -13.0680     7.5860    -0.2130 H     1 <1>   0.0800 
 43 H      -14.1700     5.9340    -1.4160 H     1 <1>   0.0800 
 44 H      -12.8540     5.3040    -2.3640 H     1 <1>   0.0800 
 45 H      -12.6990     9.2660    -1.0710 H     1 <1>   0.0800 
 46 H      -13.8620     8.0620    -2.5420 H     1 <1>   0.0800 
 47 H      -12.4070     7.4950    -3.3090 H     1 <1>   0.0800 
@<TRIPOS>BOND
  1   1   2  1   
  2   2   3  ar  
  3   2   4  ar  
  4   3   5  ar  
  5   3  27  1   
  6   4   6  ar  
  7   4  28  1   
  8   5   7  ar  
  9   5   8  1   
 10   6   7  ar  
 11   6  29  1   
 12   7   9  1   
 13   8  10  2   
 14   8  11  1   
 15   9  12  1   
 16  10  13  1   
 17  11  14  1   
 18  11  30  1   
 19  12  31  1   
 20  12  32  1   
 21  12  33  1   
 22  13  14  2   
 23  14  15  1   
 24  15  16  1   
 25  16  17  1   
 26  16  34  1   
 27  16  35  1   
 28  17  18  2   
 29  17  19  am  
 30  19  20  1   
 31  19  36  1   
 32  20  21  1   
 33  20  22  1   
 34  20  37  1   
 35  21  23  1   
 36  21  24  1   
 37  21  38  1   
 38  22  25  1   
 39  22  39  1   
 40  22  40  1   
 41  23  25  1   
 42  23  41  1   
 43  23  42  1   
 44  24  26  1   
 45  24  43  1   
 46  24  44  1   
 47  25  26  1   
 48  25  45  1   
 49  26  46  1   
 50  26  47  1   
@<TRIPOS>SUBSTRUCTURE
  1 ****  15 GROUP 4 **** **** 0

# MOE 2024.06 (io_trps.svl 2023.06)
