@<TRIPOS>MOLECULE
N-[3-(4-Chloro-phenyl)-[1,2,4]oxadiazol-5-ylmethyl]-2-cyclohexyl-N-methyl-acetam
46 48 1 0 0 
SMALL
USER_CHARGES


@<TRIPOS>ATOM
  1 CL      -1.2230     1.0320    -1.8030 Cl    1 <1>  -0.1770 
  2 C       -2.8160     0.8510    -1.1160 C.ar  1 <1>   0.1770 
  3 C       -3.5680    -0.2650    -1.4250 C.ar  1 <1>  -0.1500 
  4 C       -3.3070     1.8260    -0.2700 C.ar  1 <1>  -0.1500 
  5 C       -4.8310    -0.4030    -0.8770 C.ar  1 <1>  -0.1500 
  6 C       -4.5720     1.6770     0.2720 C.ar  1 <1>  -0.1500 
  7 C       -5.3660     0.5620    -0.0160 C.ar  1 <1>   0.0540 
  8 C       -6.6950     0.4190     0.5580 C.2   1 <1>   0.4620 
  9 N       -7.2530     1.2460     1.3700 N.2   1 <1>  -0.4100 
 10 N       -7.4920    -0.6190     0.2850 N.2   1 <1>  -0.5650 
 11 O       -8.4290     0.7870     1.6610 O.3   1 <1>  -0.0190 
 12 C       -8.5140    -0.3270     0.9830 C.2   1 <1>   0.2980 
 13 C       -9.7950    -1.1430     1.0810 C.3   1 <1>   0.3200 
 14 N      -10.9510    -0.4430     0.4310 N.am  1 <1>  -0.6600 
 15 C      -12.0380    -0.0750     1.1840 C.2   1 <1>   0.5690 
 16 C      -10.7610    -0.1440    -1.0190 C.3   1 <1>   0.0600 
 17 O      -12.1220    -0.3810     2.3490 O.2   1 <1>  -0.5700 
 18 C      -13.1840     0.7440     0.6060 C.3   1 <1>  -0.0990 
 19 C      -14.4570    -0.0890     0.3570 C.3   1 <1>  -0.0800 
 20 C      -14.2370    -1.1930    -0.6950 C.3   1 <1>  -0.1600 
 21 C      -15.6190     0.8270    -0.0670 C.3   1 <1>  -0.1600 
 22 C      -15.5200    -1.9960    -0.9410 C.3   1 <1>  -0.1600 
 23 C      -16.9040     0.0270    -0.3180 C.3   1 <1>  -0.1600 
 24 C      -16.6770    -1.0790    -1.3560 C.3   1 <1>  -0.1600 
 25 H       -3.1660    -1.0120    -2.0850 H     1 <1>   0.1500 
 26 H       -2.7050     2.6880    -0.0420 H     1 <1>   0.1500 
 27 H       -5.4130    -1.2750    -1.1200 H     1 <1>   0.1500 
 28 H       -4.9510     2.4400     0.9310 H     1 <1>   0.1500 
 29 H       -9.9930    -1.3410     2.1190 H     1 <1>   0.0800 
 30 H       -9.6450    -2.0890     0.5940 H     1 <1>   0.0800 
 31 H      -10.1480    -0.9020    -1.4760 H     1 <1>   0.0800 
 32 H      -10.2730     0.8100    -1.1300 H     1 <1>   0.0800 
 33 H      -11.7020    -0.1220    -1.5350 H     1 <1>   0.0800 
 34 H      -12.8870     1.2500    -0.2910 H     1 <1>   0.0800 
 35 H      -13.4130     1.5070     1.3280 H     1 <1>   0.0800 
 36 H      -14.7280    -0.5620     1.2870 H     1 <1>   0.0800 
 37 H      -13.4650    -1.8660    -0.3660 H     1 <1>   0.0800 
 38 H      -13.9230    -0.7490    -1.6230 H     1 <1>   0.0800 
 39 H      -15.3530     1.3560    -0.9660 H     1 <1>   0.0800 
 40 H      -15.8050     1.5560     0.7020 H     1 <1>   0.0800 
 41 H      -15.7890    -2.5220    -0.0410 H     1 <1>   0.0800 
 42 H      -15.3470    -2.7280    -1.7110 H     1 <1>   0.0800 
 43 H      -17.6810     0.6890    -0.6600 H     1 <1>   0.0800 
 44 H      -17.2330    -0.4160     0.6070 H     1 <1>   0.0800 
 45 H      -17.5770    -1.6600    -1.4660 H     1 <1>   0.0800 
 46 H      -16.4540    -0.6320    -2.3100 H     1 <1>   0.0800 
@<TRIPOS>BOND
  1   1   2  1   
  2   2   3  ar  
  3   2   4  ar  
  4   3   5  ar  
  5   3  25  1   
  6   4   6  ar  
  7   4  26  1   
  8   5   7  ar  
  9   5  27  1   
 10   6   7  ar  
 11   6  28  1   
 12   7   8  1   
 13   8   9  2   
 14   8  10  1   
 15   9  11  1   
 16  10  12  2   
 17  11  12  1   
 18  12  13  1   
 19  13  14  1   
 20  13  29  1   
 21  13  30  1   
 22  14  15  am  
 23  14  16  1   
 24  15  17  2   
 25  15  18  1   
 26  16  31  1   
 27  16  32  1   
 28  16  33  1   
 29  18  19  1   
 30  18  34  1   
 31  18  35  1   
 32  19  20  1   
 33  19  21  1   
 34  19  36  1   
 35  20  22  1   
 36  20  37  1   
 37  20  38  1   
 38  21  23  1   
 39  21  39  1   
 40  21  40  1   
 41  22  24  1   
 42  22  41  1   
 43  22  42  1   
 44  23  24  1   
 45  23  43  1   
 46  23  44  1   
 47  24  45  1   
 48  24  46  1   
@<TRIPOS>SUBSTRUCTURE
  1 ****  12 GROUP 4 **** **** 0

# MOE 2024.06 (io_trps.svl 2023.06)
