@<TRIPOS>MOLECULE
Furan-2-carboxylic acid [3-(4-chloro-phenyl)-[1,2,4]oxadiazol-5-ylmethyl]-cycloh
47 50 1 0 0 
SMALL
USER_CHARGES


@<TRIPOS>ATOM
  1 CL      -1.0190     0.6470    -0.9860 Cl    1 <1>  -0.1770 
  2 C       -2.6990     0.4890    -0.5450 C.ar  1 <1>   0.1770 
  3 C       -3.6700     0.5610    -1.5250 C.ar  1 <1>  -0.1500 
  4 C       -3.0400     0.2950     0.7790 C.ar  1 <1>  -0.1500 
  5 C       -5.0020     0.4350    -1.1680 C.ar  1 <1>  -0.1500 
  6 C       -4.3750     0.1710     1.1230 C.ar  1 <1>  -0.1500 
  7 C       -5.3890     0.2380     0.1610 C.ar  1 <1>   0.0540 
  8 C       -6.7880     0.1100     0.5360 C.2   1 <1>   0.4620 
  9 N       -7.2330    -0.0480     1.7320 N.2   1 <1>  -0.4100 
 10 N       -7.7820     0.1520    -0.3570 N.2   1 <1>  -0.5650 
 11 O       -8.5260    -0.1080     1.6740 O.3   1 <1>  -0.0190 
 12 C       -8.7930     0.0210     0.4010 C.2   1 <1>   0.2980 
 13 C      -10.2500     0.0090    -0.0380 C.3   1 <1>   0.3200 
 14 N      -10.9710     1.2730     0.3190 N.am  1 <1>  -0.6600 
 15 C      -12.1610     1.2430     1.0240 C.2   1 <1>   0.7150 
 16 C      -10.3210     2.5300    -0.1600 C.3   1 <1>   0.2200 
 17 O      -12.4350     2.1790     1.7540 O.2   1 <1>  -0.5700 
 18 C      -13.0990     0.1390     0.9400 C.2   1 <1>   0.0550 
 19 C       -9.6230     3.2860     0.9810 C.3   1 <1>  -0.1600 
 20 C      -11.3130     3.4340    -0.9070 C.3   1 <1>  -0.1600 
 21 O      -13.0900    -0.7350    -0.0670 O.3   1 <1>  -0.2800 
 22 C      -14.1170    -0.1960     1.7810 C.2   1 <1>  -0.1500 
 23 C       -8.9180     4.5420     0.4490 C.3   1 <1>  -0.1600 
 24 C      -10.6080     4.6900    -1.4420 C.3   1 <1>  -0.1600 
 25 C      -14.0570    -1.6050     0.1140 C.2   1 <1>  -0.0100 
 26 C      -14.7340    -1.3280     1.2480 C.2   1 <1>  -0.1500 
 27 C       -9.8980     5.4480    -0.3110 C.3   1 <1>  -0.1600 
 28 H       -3.3840     0.7120    -2.5500 H     1 <1>   0.1500 
 29 H       -2.2690     0.2420     1.5260 H     1 <1>   0.1500 
 30 H       -5.7540     0.4910    -1.9360 H     1 <1>   0.1500 
 31 H       -4.6370     0.0200     2.1570 H     1 <1>   0.1500 
 32 H      -10.7160    -0.8390     0.4290 H     1 <1>   0.0800 
 33 H      -10.2960    -0.1280    -1.1030 H     1 <1>   0.0800 
 34 H       -9.5600     2.2630    -0.8750 H     1 <1>   0.0800 
 35 H       -8.8980     2.6510     1.4560 H     1 <1>   0.0800 
 36 H      -10.3460     3.5840     1.7190 H     1 <1>   0.0800 
 37 H      -12.1010     3.7440    -0.2440 H     1 <1>   0.0800 
 38 H      -11.7490     2.8920    -1.7270 H     1 <1>   0.0800 
 39 H      -14.4030     0.3120     2.6860 H     1 <1>   0.1500 
 40 H       -8.1160     4.2510    -0.2070 H     1 <1>   0.0800 
 41 H       -8.4880     5.0870     1.2720 H     1 <1>   0.0800 
 42 H      -11.3310     5.3360    -1.9090 H     1 <1>   0.0800 
 43 H       -9.8870     4.4060    -2.1890 H     1 <1>   0.0800 
 44 H      -14.2000    -2.3900    -0.6080 H     1 <1>   0.1500 
 45 H      -15.5750    -1.8450     1.6740 H     1 <1>   0.1500 
 46 H       -9.3670     6.2910    -0.7190 H     1 <1>   0.0800 
 47 H      -10.6340     5.8260     0.3780 H     1 <1>   0.0800 
@<TRIPOS>BOND
  1   1   2  1   
  2   2   3  ar  
  3   2   4  ar  
  4   3   5  ar  
  5   3  28  1   
  6   4   6  ar  
  7   4  29  1   
  8   5   7  ar  
  9   5  30  1   
 10   6   7  ar  
 11   6  31  1   
 12   7   8  1   
 13   8   9  2   
 14   8  10  1   
 15   9  11  1   
 16  10  12  2   
 17  11  12  1   
 18  12  13  1   
 19  13  14  1   
 20  13  32  1   
 21  13  33  1   
 22  14  15  am  
 23  14  16  1   
 24  15  17  2   
 25  15  18  1   
 26  16  19  1   
 27  16  20  1   
 28  16  34  1   
 29  18  21  1   
 30  18  22  2   
 31  19  23  1   
 32  19  35  1   
 33  19  36  1   
 34  20  24  1   
 35  20  37  1   
 36  20  38  1   
 37  21  25  1   
 38  22  26  1   
 39  22  39  1   
 40  23  27  1   
 41  23  40  1   
 42  23  41  1   
 43  24  27  1   
 44  24  42  1   
 45  24  43  1   
 46  25  26  2   
 47  25  44  1   
 48  26  45  1   
 49  27  46  1   
 50  27  47  1   
@<TRIPOS>SUBSTRUCTURE
  1 ****  12 GROUP 4 **** **** 0

# MOE 2024.06 (io_trps.svl 2023.06)
