@<TRIPOS>MOLECULE
2-[(Z)-Allylimino]-6-methyl-10-oxo-1,10-dihydro-2H-1,9,10a-triaza-anthracene-3-c
52 54 1 0 0 
SMALL
USER_CHARGES


@<TRIPOS>ATOM
  1 O        0.1890    -0.2810     0.3370 O.2   1 <1>  -0.5700 
  2 C        0.1980    -1.4840     0.2130 C.2   1 <1>   0.8650 
  3 N       -1.0090    -2.1400    -0.0890 N.pl3 1 <1>  -0.5760 
  4 C        1.4130    -2.2190     0.3620 C.ar  1 <1>   0.0860 
  5 C       -1.0220    -3.4830    -0.2610 C.cat 1 <1>   0.7390 
  6 C       -2.1880    -1.4360    -0.2150 C.2   1 <1>   0.1910 
  7 C        1.3280    -3.5920     0.1700 C.ar  1 <1>   0.6590 
  8 C        2.6570    -1.6890     0.6790 C.ar  1 <1>  -0.1500 
  9 N        0.1300    -4.1560    -0.1340 N.pl3 1 <1>  -0.6530 
 10 C       -2.2210    -4.1410    -0.5650 C.2   1 <1>  -0.1800 
 11 C       -3.3710    -2.0580    -0.5110 C.2   1 <1>  -0.1380 
 12 N        2.3240    -4.4370     0.2550 N.ar  1 <1>  -0.6200 
 13 C        3.7430    -2.5440     0.7860 C.ar  1 <1>   0.0860 
 14 C       -3.3930    -3.4450    -0.6920 C.2   1 <1>  -0.1500 
 15 C       -4.6720    -1.2840    -0.6520 C.3   1 <1>  -0.1020 
 16 C        3.5100    -3.9220     0.5610 C.ar  1 <1>   0.4100 
 17 C        5.0550    -2.0400     1.1200 C.2   1 <1>   0.5440 
 18 N        4.5290    -4.8210     0.6460 N.pl3 1 <1>  -0.8690 
 19 O        5.7770    -2.6400     1.8930 O.2   1 <1>  -0.5700 
 20 N        5.5080    -0.8610     0.5910 N.am  1 <1>  -0.7300 
 21 C        4.4730    -6.2810     0.4860 C.3   1 <1>   0.3470 
 22 C        6.8340    -0.2690     0.8710 C.3   1 <1>   0.1400 
 23 C        5.8630    -6.7320     0.1010 C.2   1 <1>  -0.2880 
 24 C        7.3470     0.4300    -0.3850 C.3   1 <1>  -0.1600 
 25 C        6.6440    -7.5470     0.8180 C.2   1 <1>  -0.3000 
 26 C        8.7290     1.0310    -0.1440 C.3   1 <1>   0.1200 
 27 O        9.1100     1.6860    -1.3070 O.3   1 <1>  -0.5600 
 28 C       10.3670     2.2780    -1.2380 C.3   1 <1>   0.0400 
 29 H       -2.1670    -0.3640    -0.0740 H     1 <1>   0.1500 
 30 H        2.7730    -0.6300     0.8500 H     1 <1>   0.1500 
 31 H        0.1700    -5.1690    -0.2540 H     1 <1>   0.4500 
 32 H       -2.2140    -5.2070    -0.7000 H     1 <1>   0.1500 
 33 H       -4.3220    -3.9420    -0.9260 H     1 <1>   0.1500 
 34 H       -5.3920    -1.6370     0.0670 H     1 <1>   0.0800 
 35 H       -5.0790    -1.4200    -1.6390 H     1 <1>   0.0800 
 36 H       -4.5200    -0.2320    -0.4900 H     1 <1>   0.0800 
 37 H        5.4080    -4.4970     1.0860 H     1 <1>   0.4000 
 38 H        4.9730    -0.3750    -0.1300 H     1 <1>   0.3700 
 39 H        3.7710    -6.5520    -0.2840 H     1 <1>   0.0800 
 40 H        4.1730    -6.7350     1.4150 H     1 <1>   0.0800 
 41 H        7.5240    -1.0410     1.1700 H     1 <1>   0.0800 
 42 H        6.7410     0.4380     1.6790 H     1 <1>   0.0800 
 43 H        6.1750    -6.3110    -0.8390 H     1 <1>   0.1500 
 44 H        6.6700     1.2200    -0.6610 H     1 <1>   0.0800 
 45 H        7.4160    -0.2820    -1.1880 H     1 <1>   0.0800 
 46 H        7.6330    -7.8470     0.5150 H     1 <1>   0.1500 
 47 H        6.3680    -7.9820     1.7640 H     1 <1>   0.1500 
 48 H        9.4490     0.2590     0.0710 H     1 <1>   0.0800 
 49 H        8.7010     1.7470     0.6610 H     1 <1>   0.0800 
 50 H       10.5630     2.7550    -2.1820 H     1 <1>   0.0800 
 51 H       11.1080     1.5190    -1.0550 H     1 <1>   0.0800 
 52 H       10.3720     3.0140    -0.4530 H     1 <1>   0.0800 
@<TRIPOS>BOND
  1   1   2  2   
  2   2   3  1   
  3   2   4  1   
  4   3   5  ar  
  5   3   6  1   
  6   4   7  ar  
  7   4   8  ar  
  8   5   9  ar  
  9   5  10  1   
 10   6  11  2   
 11   6  29  1   
 12   7   9  1   
 13   7  12  ar  
 14   8  13  ar  
 15   8  30  1   
 16   9  31  1   
 17  10  14  2   
 18  10  32  1   
 19  11  14  1   
 20  11  15  1   
 21  12  16  ar  
 22  13  16  ar  
 23  13  17  1   
 24  14  33  1   
 25  15  34  1   
 26  15  35  1   
 27  15  36  1   
 28  16  18  1   
 29  17  19  2   
 30  17  20  am  
 31  18  21  1   
 32  18  37  1   
 33  20  22  1   
 34  20  38  1   
 35  21  23  1   
 36  21  39  1   
 37  21  40  1   
 38  22  24  1   
 39  22  41  1   
 40  22  42  1   
 41  23  25  2   
 42  23  43  1   
 43  24  26  1   
 44  24  44  1   
 45  24  45  1   
 46  25  46  1   
 47  25  47  1   
 48  26  27  1   
 49  26  48  1   
 50  26  49  1   
 51  27  28  1   
 52  28  50  1   
 53  28  51  1   
 54  28  52  1   
@<TRIPOS>SUBSTRUCTURE
  1 ****   8 GROUP 4 **** **** 0

# MOE 2024.06 (io_trps.svl 2023.06)
