@<TRIPOS>MOLECULE
1-Methyl-2-methylsulfanyl-5-(2,3,4-trimethoxy-phenyl)-5,8-dihydro-1H,6H-pyrido[2
48 50 1 0 0 
SMALL
USER_CHARGES


@<TRIPOS>ATOM
  1 S        1.9570     0.0630    -2.1860 S.3   1 <1>  -0.3710 
  2 C        2.6180     1.1510    -0.9320 C.2   1 <1>   0.6410 
  3 C        0.5800     1.0250    -2.9650 C.3   1 <1>  -0.0100 
  4 N        2.0710     2.3000    -0.8230 N.2   1 <1>  -0.6610 
  5 N        3.6610     0.6700    -0.1720 N.pl3 1 <1>  -0.5190 
  6 C        2.5620     3.1270     0.1380 C.2   1 <1>   0.7670 
  7 C        4.1690     1.4940     0.8060 C.2   1 <1>   0.2090 
  8 C        4.2460    -0.6740    -0.4740 C.3   1 <1>   0.1290 
  9 O        1.9570     4.1780     0.3090 O.2   1 <1>  -0.5700 
 10 C        3.6770     2.7570     0.9260 C.2   1 <1>  -0.1240 
 11 N        5.1260     1.0230     1.6770 N.am  1 <1>  -0.5390 
 12 C        4.2910     3.7470     1.9250 C.3   1 <1>   0.2020 
 13 C        5.7650     1.7790     2.6000 C.2   1 <1>   0.5690 
 14 C        4.4920     5.1550     1.3480 C.ar  1 <1>  -0.1440 
 15 C        5.6430     3.2800     2.5070 C.3   1 <1>  -0.0990 
 16 O        6.4330     1.2700     3.4590 O.2   1 <1>  -0.5700 
 17 C        5.1700     5.3760     0.1470 C.ar  1 <1>   0.0830 
 18 C        3.9830     6.2420     2.0460 C.ar  1 <1>  -0.1500 
 19 O        5.6590     4.2980    -0.5260 O.3   1 <1>  -0.3630 
 20 C        5.3540     6.6790    -0.3290 C.ar  1 <1>   0.0830 
 21 C        4.1380     7.5290     1.5650 C.ar  1 <1>  -0.1500 
 22 C        5.2220     4.1080    -1.8560 C.3   1 <1>   0.0400 
 23 O        6.0820     6.9010    -1.4590 O.3   1 <1>  -0.3630 
 24 C        4.8080     7.7530     0.3760 C.ar  1 <1>   0.0830 
 25 C        7.4010     7.3420    -1.2380 C.3   1 <1>   0.0400 
 26 O        4.9140     9.0370    -0.0480 O.3   1 <1>  -0.3630 
 27 C        4.2170     9.3600    -1.2310 C.3   1 <1>   0.0400 
 28 H        0.1390     0.4120    -3.7300 H     1 <1>   0.0800 
 29 H        0.9980     1.9240    -3.3810 H     1 <1>   0.0800 
 30 H       -0.1350     1.2580    -2.1960 H     1 <1>   0.0800 
 31 H        3.5440    -1.4420    -0.1990 H     1 <1>   0.0800 
 32 H        5.1680    -0.8380     0.0510 H     1 <1>   0.0800 
 33 H        4.4580    -0.7520    -1.5270 H     1 <1>   0.0800 
 34 H        5.3050     0.0250     1.7500 H     1 <1>   0.3700 
 35 H        3.5940     3.8070     2.7420 H     1 <1>   0.0800 
 36 H        5.7880     3.7140     3.4790 H     1 <1>   0.0800 
 37 H        6.4490     3.6140     1.8810 H     1 <1>   0.0800 
 38 H        3.4510     6.0970     2.9710 H     1 <1>   0.1500 
 39 H        3.7350     8.3660     2.1050 H     1 <1>   0.1500 
 40 H        5.3150     3.0640    -2.0950 H     1 <1>   0.0800 
 41 H        5.8390     4.6890    -2.5160 H     1 <1>   0.0800 
 42 H        4.1930     4.4140    -1.9390 H     1 <1>   0.0800 
 43 H        7.8810     7.4590    -2.1920 H     1 <1>   0.0800 
 44 H        7.9180     6.6030    -0.6510 H     1 <1>   0.0800 
 45 H        7.3740     8.2830    -0.7190 H     1 <1>   0.0800 
 46 H        4.2660    10.4240    -1.3710 H     1 <1>   0.0800 
 47 H        3.1930     9.0470    -1.1280 H     1 <1>   0.0800 
 48 H        4.6780     8.8600    -2.0640 H     1 <1>   0.0800 
@<TRIPOS>BOND
  1   1   2  1   
  2   1   3  1   
  3   2   4  2   
  4   2   5  1   
  5   3  28  1   
  6   3  29  1   
  7   3  30  1   
  8   4   6  1   
  9   5   7  1   
 10   5   8  1   
 11   6   9  2   
 12   6  10  1   
 13   7  10  2   
 14   7  11  1   
 15   8  31  1   
 16   8  32  1   
 17   8  33  1   
 18  10  12  1   
 19  11  13  am  
 20  11  34  1   
 21  12  14  1   
 22  12  15  1   
 23  12  35  1   
 24  13  15  1   
 25  13  16  2   
 26  14  17  ar  
 27  14  18  ar  
 28  15  36  1   
 29  15  37  1   
 30  17  19  1   
 31  17  20  ar  
 32  18  21  ar  
 33  18  38  1   
 34  19  22  1   
 35  20  23  1   
 36  20  24  ar  
 37  21  24  ar  
 38  21  39  1   
 39  22  40  1   
 40  22  41  1   
 41  22  42  1   
 42  23  25  1   
 43  24  26  1   
 44  25  43  1   
 45  25  44  1   
 46  25  45  1   
 47  26  27  1   
 48  27  46  1   
 49  27  47  1   
 50  27  48  1   
@<TRIPOS>SUBSTRUCTURE
  1 ****  10 GROUP 4 **** **** 0

# MOE 2024.06 (io_trps.svl 2023.06)
