@<TRIPOS>MOLECULE
5-Ethyl-7-methyl-2-(1-methyl-1H-indol-3-yl)-1,3-diaza-tricyclo[3.3.1.1*3,7*]deca
50 54 1 0 0 
SMALL
USER_CHARGES


@<TRIPOS>ATOM
  1 O        1.2140     0.1520     0.2450 O.2   1 <1>  -0.5700 
  2 C        1.4300    -1.0110     0.0790 C.2   1 <1>   0.4480 
  3 C        0.7650    -1.8370    -1.0260 C.3   1 <1>   0.0610 
  4 C        2.4920    -1.7710     0.8740 C.3   1 <1>   0.0610 
  5 C        1.9070    -2.2090    -1.9840 C.3   1 <1>   0.3430 
  6 C        0.2530    -3.1490    -0.4060 C.3   1 <1>   0.1100 
  7 C       -0.3500    -1.0930    -1.8060 C.3   1 <1>  -0.1600 
  8 C        3.5700    -2.1510    -0.1440 C.3   1 <1>   0.3430 
  9 C        1.8830    -3.0830     1.3860 C.3   1 <1>   0.1100 
 10 C        3.0940    -0.9600     2.0400 C.3   1 <1>  -0.2400 
 11 N        2.9680    -2.9760    -1.2520 N.4   1 <1>  -0.9590 
 12 N        1.3740    -3.8570     0.2360 N.3   1 <1>  -0.8100 
 13 C       -1.6110    -0.7800    -0.9850 C.3   1 <1>  -0.2400 
 14 C        2.4130    -4.2430    -0.7270 C.3   1 <1>   0.8740 
 15 C        3.5290    -5.0970    -0.1310 C.2   1 <1>  -0.1810 
 16 C        3.2930    -6.1840     0.7450 C.ar  1 <1>   0.0000 
 17 C        4.8760    -5.0290    -0.3270 C.2   1 <1>  -0.3020 
 18 C        4.5390    -6.7220     1.0530 C.ar  1 <1>  -0.1520 
 19 C        2.1430    -6.7610     1.3010 C.ar  1 <1>  -0.1500 
 20 N        5.5030    -6.0060     0.3910 N.pl3 1 <1>   0.0480 
 21 C        4.6560    -7.8210     1.9100 C.ar  1 <1>  -0.1500 
 22 C        2.2600    -7.8420     2.1430 C.ar  1 <1>  -0.1500 
 23 C        6.9500    -6.2800     0.4280 C.3   1 <1>   0.0160 
 24 C        3.5180    -8.3720     2.4490 C.ar  1 <1>  -0.1500 
 25 H        1.5140    -2.8050    -2.7920 H     1 <1>   0.0800 
 26 H        2.3270    -1.3080    -2.4020 H     1 <1>   0.0800 
 27 H       -0.1910    -3.7770    -1.1620 H     1 <1>   0.0800 
 28 H       -0.5050    -2.9440     0.3330 H     1 <1>   0.0800 
 29 H       -0.6470    -1.6780    -2.6600 H     1 <1>   0.0800 
 30 H        0.0450    -0.1620    -2.1790 H     1 <1>   0.0800 
 31 H        4.3430    -2.7090     0.3580 H     1 <1>   0.0800 
 32 H        4.0090    -1.2530    -0.5480 H     1 <1>   0.0800 
 33 H        2.6200    -3.6600     1.9220 H     1 <1>   0.0800 
 34 H        1.0760    -2.8760     2.0710 H     1 <1>   0.0800 
 35 H        3.8410    -1.5300     2.5640 H     1 <1>   0.0800 
 36 H        2.3210    -0.6890     2.7400 H     1 <1>   0.0800 
 37 H        3.5440    -0.0510     1.6790 H     1 <1>   0.0800 
 38 H        3.7130    -3.2740    -1.8890 H     1 <1>   0.4500 
 39 H       -2.1240    -1.6770    -0.6870 H     1 <1>   0.0800 
 40 H       -2.2920    -0.1940    -1.5780 H     1 <1>   0.0800 
 41 H       -1.3700    -0.2080    -0.1050 H     1 <1>   0.0800 
 42 H        1.9520    -4.8060    -1.5240 H     1 <1>   0.0800 
 43 H        5.4520    -4.3570    -0.9380 H     1 <1>   0.1500 
 44 H        1.1740    -6.3580     1.0720 H     1 <1>   0.1500 
 45 H        5.6240    -8.2280     2.1410 H     1 <1>   0.1500 
 46 H        1.3840    -8.2920     2.5770 H     1 <1>   0.1500 
 47 H        7.4720    -5.5750    -0.1920 H     1 <1>   0.0800 
 48 H        7.1310    -7.2760     0.0660 H     1 <1>   0.0800 
 49 H        7.3010    -6.1980     1.4400 H     1 <1>   0.0800 
 50 H        3.5830    -9.2190     3.1100 H     1 <1>   0.1500 
@<TRIPOS>BOND
  1   1   2  2   
  2   2   3  1   
  3   2   4  1   
  4   3   5  1   
  5   3   6  1   
  6   3   7  1   
  7   4   8  1   
  8   4   9  1   
  9   4  10  1   
 10   5  11  1   
 11   5  25  1   
 12   5  26  1   
 13   6  12  1   
 14   6  27  1   
 15   6  28  1   
 16   7  13  1   
 17   7  29  1   
 18   7  30  1   
 19   8  11  1   
 20   8  31  1   
 21   8  32  1   
 22   9  12  1   
 23   9  33  1   
 24   9  34  1   
 25  10  35  1   
 26  10  36  1   
 27  10  37  1   
 28  11  14  1   
 29  11  38  1   
 30  12  14  1   
 31  13  39  1   
 32  13  40  1   
 33  13  41  1   
 34  14  15  1   
 35  14  42  1   
 36  15  16  1   
 37  15  17  2   
 38  16  18  ar  
 39  16  19  ar  
 40  17  20  1   
 41  17  43  1   
 42  18  20  1   
 43  18  21  ar  
 44  19  22  ar  
 45  19  44  1   
 46  20  23  1   
 47  21  24  ar  
 48  21  45  1   
 49  22  24  ar  
 50  22  46  1   
 51  23  47  1   
 52  23  48  1   
 53  23  49  1   
 54  24  50  1   
@<TRIPOS>SUBSTRUCTURE
  1 ****  14 GROUP 4 **** **** 0

# MOE 2024.06 (io_trps.svl 2023.06)
