@<TRIPOS>MOLECULE
2-Chloro-N-cyclopropyl-4-(2-oxo-pyrrolidin-1-yl)-benzenesulfonamide
35 37 1 0 0 
SMALL
USER_CHARGES


@<TRIPOS>ATOM
  1 CL       0.5000    -0.3130     0.6980 Cl    1 <1>  -0.1770 
  2 C        1.6760     0.8180     0.0680 C.ar  1 <1>   0.1770 
  3 C        2.7530     0.3770    -0.6890 C.ar  1 <1>  -0.0090 
  4 C        1.4810     2.1530     0.3650 C.ar  1 <1>  -0.1500 
  5 S        2.9850    -1.3710    -1.0750 S.o2  1 <1>   1.4470 
  6 C        3.6450     1.3440    -1.1390 C.ar  1 <1>  -0.1500 
  7 C        2.3710     3.1150    -0.0940 C.ar  1 <1>   0.1170 
  8 O        1.7960    -1.9060    -1.6980 O.2   1 <1>  -0.6500 
  9 O        4.2680    -1.5480    -1.7210 O.2   1 <1>  -0.6500 
 10 N        3.0700    -2.1100     0.4300 N.am  1 <1>  -0.7890 
 11 C        3.4580     2.6840    -0.8470 C.ar  1 <1>  -0.1500 
 12 N        2.1800     4.4780     0.1900 N.am  1 <1>  -0.4770 
 13 C        3.6530    -3.4250     0.3960 C.3   1 <1>   0.1310 
 14 C        3.1380     5.4050     0.4910 C.2   1 <1>   0.5690 
 15 C        0.8530     5.1170     0.0550 C.3   1 <1>   0.1400 
 16 C        2.7870    -4.5920     0.0790 C.3   1 <1>  -0.2000 
 17 C        3.2980    -4.3780     1.4810 C.3   1 <1>  -0.2000 
 18 O        4.3160     5.1970     0.6420 O.2   1 <1>  -0.5700 
 19 C        2.5530     6.7850     0.6160 C.3   1 <1>  -0.0990 
 20 C        1.0380     6.5440     0.5850 C.3   1 <1>  -0.1600 
 21 H        0.6370     2.4350     0.9650 H     1 <1>   0.1500 
 22 H        4.5010     1.0480    -1.7240 H     1 <1>   0.1500 
 23 H        2.0940    -2.2360     0.6910 H     1 <1>   0.4200 
 24 H        4.1690     3.4080    -1.2070 H     1 <1>   0.1500 
 25 H        4.6720    -3.4240     0.0380 H     1 <1>   0.1000 
 26 H        0.1080     4.5910     0.6250 H     1 <1>   0.0800 
 27 H        0.5740     5.1290    -0.9850 H     1 <1>   0.0800 
 28 H        3.2050    -5.3960    -0.5010 H     1 <1>   0.1000 
 29 H        1.7460    -4.4250    -0.1370 H     1 <1>   0.1000 
 30 H        2.6120    -4.0630     2.2470 H     1 <1>   0.1000 
 31 H        4.0570    -5.0440     1.8510 H     1 <1>   0.1000 
 32 H        2.8710     7.3760    -0.2220 H     1 <1>   0.0800 
 33 H        2.8680     7.2480     1.5330 H     1 <1>   0.0800 
 34 H        0.6420     6.6010     1.5850 H     1 <1>   0.0800 
 35 H        0.5270     7.2640    -0.0300 H     1 <1>   0.0800 
@<TRIPOS>BOND
  1   1   2  1   
  2   2   3  ar  
  3   2   4  ar  
  4   3   5  1   
  5   3   6  ar  
  6   4   7  ar  
  7   4  21  1   
  8   5   8  2   
  9   5   9  2   
 10   5  10  am  
 11   6  11  ar  
 12   6  22  1   
 13   7  11  ar  
 14   7  12  1   
 15  10  13  1   
 16  10  23  1   
 17  11  24  1   
 18  12  14  am  
 19  12  15  1   
 20  13  16  1   
 21  13  17  1   
 22  13  25  1   
 23  14  18  2   
 24  14  19  1   
 25  15  20  1   
 26  15  26  1   
 27  15  27  1   
 28  16  17  1   
 29  16  28  1   
 30  16  29  1   
 31  17  30  1   
 32  17  31  1   
 33  19  20  1   
 34  19  32  1   
 35  19  33  1   
 36  20  34  1   
 37  20  35  1   
@<TRIPOS>SUBSTRUCTURE
  1 ****   2 GROUP 4 **** **** 0

# MOE 2024.06 (io_trps.svl 2023.06)
