@<TRIPOS>MOLECULE
5-Oxo-4-oxa-tricyclo[4.2.1.0*3,7*]nonane-9-carboxylic acid (3,4-dichloro-phenyl)
34 37 1 0 0 
SMALL
USER_CHARGES


@<TRIPOS>ATOM
  1 CL      -0.0620     0.4260    -0.1180 Cl    1 <1>  -0.1770 
  2 C       -0.8010    -1.1580    -0.1710 C.ar  1 <1>   0.1770 
  3 C       -0.0250    -2.3040    -0.1190 C.ar  1 <1>   0.1770 
  4 C       -2.1770    -1.2440    -0.2650 C.ar  1 <1>  -0.1500 
  5 CL       1.7180    -2.2050     0.0000 Cl    1 <1>  -0.1770 
  6 C       -0.6260    -3.5480    -0.1590 C.ar  1 <1>  -0.1500 
  7 C       -2.7990    -2.4870    -0.3100 C.ar  1 <1>   0.1170 
  8 C       -2.0050    -3.6340    -0.2520 C.ar  1 <1>  -0.1500 
  9 N       -4.1980    -2.5350    -0.3930 N.am  1 <1>  -0.5470 
 10 C       -5.0250    -3.4970    -0.9160 C.2   1 <1>   0.5690 
 11 O       -4.6060    -4.5040    -1.4270 O.2   1 <1>  -0.5700 
 12 C       -6.5430    -3.3200    -0.8610 C.3   1 <1>  -0.0190 
 13 C       -7.0530    -1.8550    -0.7820 C.3   1 <1>  -0.0190 
 14 C       -7.1610    -3.9530     0.4100 C.3   1 <1>  -0.0800 
 15 C       -8.2520    -1.6860    -1.6790 C.2   1 <1>   0.6590 
 16 C       -7.7200    -1.7980     0.6010 C.3   1 <1>  -0.0800 
 17 C       -8.6990    -3.9670     0.2670 C.3   1 <1>  -0.1600 
 18 C       -6.9900    -2.8420     1.4300 C.3   1 <1>  -0.1600 
 19 O       -8.2240    -1.2620    -2.8010 O.2   1 <1>  -0.5700 
 20 O       -9.3450    -2.0600    -1.0490 O.3   1 <1>  -0.4300 
 21 C       -9.0650    -2.4680     0.2680 C.3   1 <1>   0.2000 
 22 H       -2.7550    -0.3400    -0.3090 H     1 <1>   0.1500 
 23 H       -0.0200    -4.4370    -0.1190 H     1 <1>   0.1500 
 24 H       -2.4650    -4.6060    -0.2780 H     1 <1>   0.1500 
 25 H       -4.6710    -1.7070    -0.0410 H     1 <1>   0.3700 
 26 H       -6.9390    -3.8100    -1.7360 H     1 <1>   0.0800 
 27 H       -6.3190    -1.0920    -0.9610 H     1 <1>   0.0800 
 28 H       -6.7350    -4.9050     0.6840 H     1 <1>   0.0800 
 29 H       -7.8150    -0.8180     1.0360 H     1 <1>   0.0800 
 30 H       -9.1360    -4.4460     1.1260 H     1 <1>   0.0800 
 31 H       -9.0330    -4.4740    -0.6230 H     1 <1>   0.0800 
 32 H       -5.9630    -2.5890     1.6270 H     1 <1>   0.0800 
 33 H       -7.4920    -3.0530     2.3610 H     1 <1>   0.0800 
 34 H       -9.8800    -2.2140     0.9250 H     1 <1>   0.0800 
@<TRIPOS>BOND
  1   1   2  1   
  2   2   3  ar  
  3   2   4  ar  
  4   3   5  1   
  5   3   6  ar  
  6   4   7  ar  
  7   4  22  1   
  8   6   8  ar  
  9   6  23  1   
 10   7   8  ar  
 11   7   9  1   
 12   8  24  1   
 13   9  10  am  
 14   9  25  1   
 15  10  11  2   
 16  10  12  1   
 17  12  13  1   
 18  12  14  1   
 19  12  26  1   
 20  13  15  1   
 21  13  16  1   
 22  13  27  1   
 23  14  17  1   
 24  14  18  1   
 25  14  28  1   
 26  15  19  2   
 27  15  20  1   
 28  16  18  1   
 29  16  21  1   
 30  16  29  1   
 31  17  21  1   
 32  17  30  1   
 33  17  31  1   
 34  18  32  1   
 35  18  33  1   
 36  20  21  1   
 37  21  34  1   
@<TRIPOS>SUBSTRUCTURE
  1 ****   9 GROUP 4 **** **** 0

# MOE 2024.06 (io_trps.svl 2023.06)
