@<TRIPOS>MOLECULE
3-((E)-But-2-enyl)-8-(2,5-dimethoxy-phenyl)-1-methyl-7,8-dihydro-1H,6H-imidazo[2
53 56 1 0 0 
SMALL
USER_CHARGES


@<TRIPOS>ATOM
  1 O       -0.1860     1.4970     0.4610 O.2   1 <1>  -0.5740 
  2 C        1.0150     1.6010     0.6020 C.2   1 <1>   0.6860 
  3 N        1.5630     2.7530     1.1550 N.am  1 <1>  -0.4250 
  4 N        1.8420     0.5480     0.2300 N.am  1 <1>  -0.4410 
  5 C        2.9160     2.8500     1.4320 C.2   1 <1>   0.7000 
  6 C        0.7070     3.9540     1.3290 C.3   1 <1>   0.2720 
  7 C        3.1930     0.6570     0.4910 C.2   1 <1>   0.4210 
  8 C        1.2760    -0.6820    -0.3990 C.3   1 <1>   0.0530 
  9 O        3.3840     3.8380     1.9750 O.2   1 <1>  -0.5740 
 10 C        3.7490     1.7490     1.0680 C.2   1 <1>   0.2710 
 11 C        0.9010     4.8610     0.1290 C.2   1 <1>  -0.2940 
 12 N        4.1800    -0.2540     0.2340 N.pl3 1 <1>  -0.7030 
 13 N        5.1180     1.4730     1.1480 N.pl3 1 <1>  -0.7670 
 14 C        0.0050     5.0390    -0.8450 C.2   1 <1>  -0.2940 
 15 C        5.3230     0.2830     0.6380 C.cat 1 <1>   1.0690 
 16 C        6.3670     2.1170     1.5790 C.3   1 <1>   0.3480 
 17 C        0.2030     5.9490    -2.0410 C.3   1 <1>  -0.1090 
 18 N        6.6050    -0.0940     0.6470 N.pl3 1 <1>  -0.5790 
 19 C        7.4090     1.0230     1.2400 C.3   1 <1>   0.1610 
 20 C        7.1740    -1.3070     0.1940 C.ar  1 <1>   0.3050 
 21 C        6.7850    -1.9220    -1.0080 C.ar  1 <1>   0.0750 
 22 C        8.1540    -1.9150     0.9640 C.ar  1 <1>  -0.1570 
 23 O        5.8250    -1.3220    -1.7750 O.3   1 <1>  -0.3680 
 24 C        7.3780    -3.1190    -1.3990 C.ar  1 <1>  -0.1570 
 25 C        8.7470    -3.1010     0.5730 C.ar  1 <1>   0.0750 
 26 C        5.7590    -1.5790    -3.1660 C.3   1 <1>   0.0320 
 27 C        8.3550    -3.7060    -0.6140 C.ar  1 <1>  -0.1570 
 28 O        9.6930    -3.6030     1.4040 O.3   1 <1>  -0.3680 
 29 C       10.3600    -4.8110     1.1060 C.3   1 <1>   0.0320 
 30 H       -0.3290     3.6720     1.4110 H     1 <1>   0.0730 
 31 H        0.9720     4.4760     2.2330 H     1 <1>   0.0730 
 32 H        1.0780    -1.4190     0.3600 H     1 <1>   0.0730 
 33 H        1.9630    -1.0860    -1.1220 H     1 <1>   0.0730 
 34 H        0.3530    -0.4540    -0.9070 H     1 <1>   0.0730 
 35 H        1.8550     5.3610     0.1410 H     1 <1>   0.1430 
 36 H        4.1470    -1.1280    -0.2890 H     1 <1>   0.4450 
 37 H       -0.9500     4.5360    -0.8600 H     1 <1>   0.1430 
 38 H        6.5470     3.0210     1.0210 H     1 <1>   0.0730 
 39 H        6.3470     2.3330     2.6340 H     1 <1>   0.0730 
 40 H       -0.5620     6.7040    -2.0570 H     1 <1>   0.0730 
 41 H        0.1460     5.3780    -2.9510 H     1 <1>   0.0730 
 42 H        1.1630     6.4330    -1.9980 H     1 <1>   0.0730 
 43 H        7.9170     0.7020     2.1330 H     1 <1>   0.0730 
 44 H        8.1310     1.3880     0.5280 H     1 <1>   0.0730 
 45 H        8.4740    -1.4830     1.8930 H     1 <1>   0.1430 
 46 H        7.0960    -3.6180    -2.3080 H     1 <1>   0.1430 
 47 H        5.0840    -0.8690    -3.6090 H     1 <1>   0.0730 
 48 H        5.3890    -2.5760    -3.3250 H     1 <1>   0.0730 
 49 H        6.7400    -1.4620    -3.5940 H     1 <1>   0.0730 
 50 H        8.7960    -4.6300    -0.9420 H     1 <1>   0.1430 
 51 H       11.0600    -5.0100     1.8970 H     1 <1>   0.0730 
 52 H       10.8860    -4.6990     0.1740 H     1 <1>   0.0730 
 53 H        9.6370    -5.6050     1.0490 H     1 <1>   0.0730 
@<TRIPOS>BOND
  1   1   2  2   
  2   2   3  am  
  3   2   4  am  
  4   3   5  am  
  5   3   6  1   
  6   4   7  1   
  7   4   8  1   
  8   5   9  2   
  9   5  10  1   
 10   6  11  1   
 11   6  30  1   
 12   6  31  1   
 13   7  10  2   
 14   7  12  1   
 15   8  32  1   
 16   8  33  1   
 17   8  34  1   
 18  10  13  1   
 19  11  14  2   
 20  11  35  1   
 21  12  15  ar  
 22  12  36  1   
 23  13  15  ar  
 24  13  16  1   
 25  14  17  1   
 26  14  37  1   
 27  15  18  ar  
 28  16  19  1   
 29  16  38  1   
 30  16  39  1   
 31  17  40  1   
 32  17  41  1   
 33  17  42  1   
 34  18  19  1   
 35  18  20  1   
 36  19  43  1   
 37  19  44  1   
 38  20  21  ar  
 39  20  22  ar  
 40  21  23  1   
 41  21  24  ar  
 42  22  25  ar  
 43  22  45  1   
 44  23  26  1   
 45  24  27  ar  
 46  24  46  1   
 47  25  27  ar  
 48  25  28  1   
 49  26  47  1   
 50  26  48  1   
 51  26  49  1   
 52  27  50  1   
 53  28  29  1   
 54  29  51  1   
 55  29  52  1   
 56  29  53  1   
@<TRIPOS>SUBSTRUCTURE
  1 ****  12 GROUP 4 **** **** 0

# MOE 2024.06 (io_trps.svl 2023.06)
