@<TRIPOS>MOLECULE
1-[3-(4-Chloro-phenyl)-[1,2,4]oxadiazol-5-ylmethyl]-3-ethyl-1-methyl-urea
35 36 1 0 0 
SMALL
USER_CHARGES


@<TRIPOS>ATOM
  1 CL      -0.7810     1.5980    -0.8480 Cl    1 <1>  -0.1770 
  2 C       -2.4240     1.2180    -0.4030 C.ar  1 <1>   0.1770 
  3 C       -2.9890     1.8270     0.7010 C.ar  1 <1>  -0.1500 
  4 C       -3.1420     0.3120    -1.1580 C.ar  1 <1>  -0.1500 
  5 C       -4.2930     1.5210     1.0490 C.ar  1 <1>  -0.1500 
  6 C       -4.4450     0.0140    -0.7990 C.ar  1 <1>  -0.1500 
  7 C       -5.0540     0.6100     0.3110 C.ar  1 <1>   0.0540 
  8 C       -6.4250     0.2990     0.6870 C.2   1 <1>   0.4620 
  9 N       -7.0520     0.7830     1.6990 N.2   1 <1>  -0.4100 
 10 N       -7.1910    -0.5450    -0.0110 N.2   1 <1>  -0.5650 
 11 O       -8.2460     0.2790     1.7090 O.3   1 <1>  -0.0190 
 12 C       -8.2690    -0.5050     0.6630 C.2   1 <1>   0.2980 
 13 C       -9.5510    -1.2650     0.3540 C.3   1 <1>   0.3200 
 14 N      -10.6570    -0.3500    -0.0690 N.am  1 <1>  -0.6600 
 15 C      -11.8880    -0.4550     0.5170 C.2   1 <1>   0.6900 
 16 C      -10.3490     0.5620    -1.2070 C.3   1 <1>   0.0600 
 17 O      -12.1590    -1.4080     1.2230 O.2   1 <1>  -0.5700 
 18 N      -12.8010     0.5260     0.3180 N.am  1 <1>  -0.7300 
 19 C      -14.1510     0.5550     0.9060 C.3   1 <1>   0.1400 
 20 C      -15.0960     1.2320    -0.0800 C.3   1 <1>  -0.2400 
 21 H       -2.4120     2.5300     1.2760 H     1 <1>   0.1500 
 22 H       -2.6840    -0.1520    -2.0130 H     1 <1>   0.1500 
 23 H       -4.7290     1.9980     1.9100 H     1 <1>   0.1500 
 24 H       -5.0010    -0.6930    -1.3910 H     1 <1>   0.1500 
 25 H       -9.8290    -1.8230     1.2310 H     1 <1>   0.0800 
 26 H       -9.3610    -1.9680    -0.4370 H     1 <1>   0.0800 
 27 H       -9.6850     0.0750    -1.9010 H     1 <1>   0.0800 
 28 H       -9.8740     1.4550    -0.8380 H     1 <1>   0.0800 
 29 H      -11.2480     0.8290    -1.7340 H     1 <1>   0.0800 
 30 H      -12.4740     1.3870    -0.1080 H     1 <1>   0.3700 
 31 H      -14.1240     1.0990     1.8350 H     1 <1>   0.0800 
 32 H      -14.4850    -0.4500     1.1070 H     1 <1>   0.0800 
 33 H      -14.7870     2.2450    -0.2650 H     1 <1>   0.0800 
 34 H      -16.0900     1.2480     0.3290 H     1 <1>   0.0800 
 35 H      -15.1190     0.6850    -1.0060 H     1 <1>   0.0800 
@<TRIPOS>BOND
  1   1   2  1   
  2   2   3  ar  
  3   2   4  ar  
  4   3   5  ar  
  5   3  21  1   
  6   4   6  ar  
  7   4  22  1   
  8   5   7  ar  
  9   5  23  1   
 10   6   7  ar  
 11   6  24  1   
 12   7   8  1   
 13   8   9  2   
 14   8  10  1   
 15   9  11  1   
 16  10  12  2   
 17  11  12  1   
 18  12  13  1   
 19  13  14  1   
 20  13  25  1   
 21  13  26  1   
 22  14  15  am  
 23  14  16  1   
 24  15  17  2   
 25  15  18  am  
 26  16  27  1   
 27  16  28  1   
 28  16  29  1   
 29  18  19  1   
 30  18  30  1   
 31  19  20  1   
 32  19  31  1   
 33  19  32  1   
 34  20  33  1   
 35  20  34  1   
 36  20  35  1   
@<TRIPOS>SUBSTRUCTURE
  1 ****  12 GROUP 4 **** **** 0

# MOE 2024.06 (io_trps.svl 2023.06)
