@<TRIPOS>MOLECULE
3-Methyl-4-[2-(4-methyl-piperazin-1-yl)-2-oxo-ethoxy]-N-propyl-benzenesulfonamid
53 54 1 0 0 
SMALL
USER_CHARGES


@<TRIPOS>ATOM
  1 S       -0.3520     0.4790     0.9570 S.o2  1 <1>   1.4470 
  2 O       -0.9080     1.7420     1.3900 O.2   1 <1>  -0.6500 
  3 O       -0.7890    -0.7590     1.5590 O.2   1 <1>  -0.6500 
  4 N       -0.7250     0.2890    -0.6700 N.am  1 <1>  -0.9140 
  5 C        1.4590     0.5690     0.9550 C.ar  1 <1>  -0.0090 
  6 C       -2.0070     0.8350    -1.0910 C.3   1 <1>   0.1960 
  7 C        2.1120     1.6830     0.4410 C.ar  1 <1>  -0.1500 
  8 C        2.2350    -0.4730     1.4500 C.ar  1 <1>  -0.1500 
  9 C       -3.1660    -0.0190    -0.5660 C.3   1 <1>  -0.1600 
 10 C        3.4950     1.7770     0.4180 C.ar  1 <1>  -0.1430 
 11 C        3.6160    -0.3990     1.4400 C.ar  1 <1>  -0.1500 
 12 C       -4.5090     0.4700    -1.1210 C.3   1 <1>  -0.2400 
 13 C        4.2450     0.7250     0.9360 C.ar  1 <1>   0.0830 
 14 C        4.1420     3.0200    -0.1780 C.3   1 <1>  -0.0970 
 15 O        5.5920     0.7610     0.9560 O.3   1 <1>  -0.3630 
 16 C        6.1990     1.5740     1.9510 C.3   1 <1>   0.1810 
 17 C        7.1480     2.6020     1.3320 C.2   1 <1>   0.5690 
 18 O        7.0560     3.7390     1.7280 O.2   1 <1>  -0.5700 
 19 N        8.0820     2.2720     0.3710 N.am  1 <1>  -0.6600 
 20 C        8.8260     3.3470    -0.3610 C.3   1 <1>   0.1400 
 21 C        8.3740     0.8780    -0.0920 C.3   1 <1>   0.1400 
 22 C       10.3330     3.0450    -0.4260 C.3   1 <1>   0.3430 
 23 C        9.8910     0.6180    -0.1960 C.3   1 <1>   0.3430 
 24 N       10.6070     1.6770    -0.9920 N.4   1 <1>  -0.9590 
 25 C       12.0750     1.4060    -1.0560 C.3   1 <1>   0.2630 
 26 H       -0.7690    -0.7210    -0.7900 H     1 <1>   0.4200 
 27 H       -2.0350     0.8360    -2.1680 H     1 <1>   0.0800 
 28 H       -2.1080     1.8570    -0.7630 H     1 <1>   0.0800 
 29 H        1.5150     2.4910     0.0500 H     1 <1>   0.1500 
 30 H        1.7540    -1.3510     1.8480 H     1 <1>   0.1500 
 31 H       -3.2030     0.0340     0.5080 H     1 <1>   0.0800 
 32 H       -3.0230    -1.0450    -0.8550 H     1 <1>   0.0800 
 33 H        4.2060    -1.2120     1.8240 H     1 <1>   0.1500 
 34 H       -4.6870     1.4900    -0.8280 H     1 <1>   0.0800 
 35 H       -5.3080    -0.1390    -0.7360 H     1 <1>   0.0800 
 36 H       -4.5210     0.4090    -2.1950 H     1 <1>   0.0800 
 37 H        3.4610     3.5260    -0.8380 H     1 <1>   0.0800 
 38 H        5.0170     2.7530    -0.7430 H     1 <1>   0.0800 
 39 H        4.4240     3.7000     0.6060 H     1 <1>   0.0800 
 40 H        6.7390     0.9330     2.6200 H     1 <1>   0.0800 
 41 H        5.4310     2.0860     2.5050 H     1 <1>   0.0800 
 42 H        8.6900     4.3010     0.1210 H     1 <1>   0.0800 
 43 H        8.4290     3.4340    -1.3570 H     1 <1>   0.0800 
 44 H        7.9100     0.7200    -1.0500 H     1 <1>   0.0800 
 45 H        7.9600     0.1580     0.5910 H     1 <1>   0.0800 
 46 H       10.7370     3.1160     0.5710 H     1 <1>   0.0800 
 47 H       10.8150     3.7970    -1.0310 H     1 <1>   0.0800 
 48 H       10.0500    -0.3490    -0.6460 H     1 <1>   0.0800 
 49 H       10.2970     0.5850     0.8020 H     1 <1>   0.0800 
 50 H       10.2240     1.6570    -1.9490 H     1 <1>   0.4500 
 51 H       12.5040     1.4240    -0.0660 H     1 <1>   0.0800 
 52 H       12.5690     2.1530    -1.6570 H     1 <1>   0.0800 
 53 H       12.2600     0.4380    -1.4940 H     1 <1>   0.0800 
@<TRIPOS>BOND
  1   1   2  2   
  2   1   3  2   
  3   1   4  am  
  4   1   5  1   
  5   4   6  1   
  6   4  26  1   
  7   5   7  ar  
  8   5   8  ar  
  9   6   9  1   
 10   6  27  1   
 11   6  28  1   
 12   7  10  ar  
 13   7  29  1   
 14   8  11  ar  
 15   8  30  1   
 16   9  12  1   
 17   9  31  1   
 18   9  32  1   
 19  10  13  ar  
 20  10  14  1   
 21  11  13  ar  
 22  11  33  1   
 23  12  34  1   
 24  12  35  1   
 25  12  36  1   
 26  13  15  1   
 27  14  37  1   
 28  14  38  1   
 29  14  39  1   
 30  15  16  1   
 31  16  17  1   
 32  16  40  1   
 33  16  41  1   
 34  17  18  2   
 35  17  19  am  
 36  19  20  1   
 37  19  21  1   
 38  20  22  1   
 39  20  42  1   
 40  20  43  1   
 41  21  23  1   
 42  21  44  1   
 43  21  45  1   
 44  22  24  1   
 45  22  46  1   
 46  22  47  1   
 47  23  24  1   
 48  23  48  1   
 49  23  49  1   
 50  24  25  1   
 51  24  50  1   
 52  25  51  1   
 53  25  52  1   
 54  25  53  1   
@<TRIPOS>SUBSTRUCTURE
  1 ****  13 GROUP 4 **** **** 0

# MOE 2024.06 (io_trps.svl 2023.06)
