@<TRIPOS>MOLECULE
N-{2-[4-(Furan-2-carbonyl)-piperazin-1-yl]-2-oxo-ethyl}-benzenesulfonamide
45 47 1 0 0 
SMALL
USER_CHARGES


@<TRIPOS>ATOM
  1 S        1.3480    -0.8790     0.0150 S.o2  1 <1>   1.4470 
  2 O        1.8730    -2.1980    -0.2640 O.2   1 <1>  -0.6500 
  3 O        2.0840     0.0310     0.8590 O.2   1 <1>  -0.6500 
  4 N        1.2370    -0.0950    -1.4630 N.am  1 <1>  -0.9140 
  5 C       -0.3790    -0.9970     0.5540 C.ar  1 <1>  -0.0090 
  6 C        2.4410    -0.2530    -2.3010 C.3   1 <1>   0.2570 
  7 C       -0.8460    -0.2800     1.6500 C.ar  1 <1>  -0.1500 
  8 C       -1.2840    -1.8030    -0.1290 C.ar  1 <1>  -0.1500 
  9 C        3.6800     0.4920    -1.7690 C.2   1 <1>   0.5690 
 10 C       -2.1680    -0.3650     2.0540 C.ar  1 <1>  -0.1500 
 11 C       -2.6070    -1.8940     0.2680 C.ar  1 <1>  -0.1500 
 12 O        3.6770     1.6900    -1.9340 O.2   1 <1>  -0.5700 
 13 N        4.7270    -0.1370    -1.1340 N.am  1 <1>  -0.6600 
 14 C       -3.0500    -1.1740     1.3620 C.ar  1 <1>  -0.1500 
 15 C        5.8030     0.6610    -0.4680 C.3   1 <1>   0.1400 
 16 C        4.8590    -1.6070    -0.8700 C.3   1 <1>   0.1400 
 17 C        7.1990     0.1690    -0.8800 C.3   1 <1>   0.1400 
 18 C        6.2480    -2.1160    -1.2850 C.3   1 <1>   0.1400 
 19 N        7.3380    -1.3040    -0.6580 N.am  1 <1>  -0.6600 
 20 C        8.2170    -1.8520     0.2590 C.2   1 <1>   0.7150 
 21 O        7.9490    -2.9430     0.7320 O.2   1 <1>  -0.5700 
 22 C        9.4350    -1.1680     0.6410 C.2   1 <1>   0.0550 
 23 O        9.8690    -1.1870     1.8990 O.3   1 <1>  -0.2800 
 24 C       10.3170    -0.4380    -0.1010 C.2   1 <1>  -0.1500 
 25 C       10.9860    -0.5000     1.9770 C.2   1 <1>  -0.0100 
 26 C       11.3200    -0.0050     0.7670 C.2   1 <1>  -0.1500 
 27 H        1.2200     0.8950    -1.2090 H     1 <1>   0.4200 
 28 H        2.2220     0.1670    -3.2660 H     1 <1>   0.0800 
 29 H        2.6450    -1.2930    -2.4640 H     1 <1>   0.0800 
 30 H       -0.1680     0.3540     2.1980 H     1 <1>   0.1500 
 31 H       -0.9450    -2.3660    -0.9820 H     1 <1>   0.1500 
 32 H       -2.5090     0.1970     2.9060 H     1 <1>   0.1500 
 33 H       -3.2900    -2.5250    -0.2750 H     1 <1>   0.1500 
 34 H       -4.0790    -1.2430     1.6730 H     1 <1>   0.1500 
 35 H        5.6940     0.5690     0.5990 H     1 <1>   0.0800 
 36 H        5.7140     1.7050    -0.7140 H     1 <1>   0.0800 
 37 H        4.1220    -2.1740    -1.4030 H     1 <1>   0.0800 
 38 H        4.7150    -1.7920     0.1810 H     1 <1>   0.0800 
 39 H        7.9290     0.7140    -0.3100 H     1 <1>   0.0800 
 40 H        7.3570     0.3880    -1.9220 H     1 <1>   0.0800 
 41 H        6.3410    -2.0570    -2.3550 H     1 <1>   0.0800 
 42 H        6.3390    -3.1530    -1.0100 H     1 <1>   0.0800 
 43 H       10.2720    -0.2310    -1.1550 H     1 <1>   0.1500 
 44 H       11.4790    -0.4140     2.9300 H     1 <1>   0.1500 
 45 H       12.1730     0.5940     0.5000 H     1 <1>   0.1500 
@<TRIPOS>BOND
  1   1   2  2   
  2   1   3  2   
  3   1   4  am  
  4   1   5  1   
  5   4   6  1   
  6   4  27  1   
  7   5   7  ar  
  8   5   8  ar  
  9   6   9  1   
 10   6  28  1   
 11   6  29  1   
 12   7  10  ar  
 13   7  30  1   
 14   8  11  ar  
 15   8  31  1   
 16   9  12  2   
 17   9  13  am  
 18  10  14  ar  
 19  10  32  1   
 20  11  14  ar  
 21  11  33  1   
 22  13  15  1   
 23  13  16  1   
 24  14  34  1   
 25  15  17  1   
 26  15  35  1   
 27  15  36  1   
 28  16  18  1   
 29  16  37  1   
 30  16  38  1   
 31  17  19  1   
 32  17  39  1   
 33  17  40  1   
 34  18  19  1   
 35  18  41  1   
 36  18  42  1   
 37  19  20  am  
 38  20  21  2   
 39  20  22  1   
 40  22  23  1   
 41  22  24  2   
 42  23  25  1   
 43  24  26  1   
 44  24  43  1   
 45  25  26  2   
 46  25  44  1   
 47  26  45  1   
@<TRIPOS>SUBSTRUCTURE
  1 ****  16 GROUP 4 **** **** 0

# MOE 2024.06 (io_trps.svl 2023.06)
