@<TRIPOS>MOLECULE
5-(4-Methoxy-phenyl)-1-methyl-2-methylsulfanyl-5,8-dihydro-1H,6H-pyrido[2,3-d]py
40 42 1 0 0 
SMALL
USER_CHARGES


@<TRIPOS>ATOM
  1 S        0.1790     1.1310    -0.8370 S.3   1 <1>  -0.3710 
  2 C        1.7860     1.7930    -0.4190 C.2   1 <1>   0.6410 
  3 C       -0.9960     1.9990     0.2990 C.3   1 <1>  -0.0100 
  4 N        1.8230     2.6670     0.5110 N.2   1 <1>  -0.6610 
  5 N        2.8670     1.3060    -1.1220 N.pl3 1 <1>  -0.5190 
  6 C        3.0440     3.1650     0.8400 C.2   1 <1>   0.7670 
  7 C        4.1120     1.7910    -0.7940 C.2   1 <1>   0.2090 
  8 C        2.6510     0.3270    -2.2340 C.3   1 <1>   0.1290 
  9 O        3.0890     3.9090     1.8110 O.2   1 <1>  -0.5700 
 10 C        4.2080     2.7810     0.1330 C.2   1 <1>  -0.1240 
 11 N        5.2390     1.2370    -1.3550 N.am  1 <1>  -0.5390 
 12 C        5.5550     3.4330     0.4650 C.3   1 <1>   0.2020 
 13 C        6.5040     1.6560    -1.1240 C.2   1 <1>   0.5690 
 14 C        5.4720     4.9600     0.4100 C.ar  1 <1>  -0.1440 
 15 C        6.7180     2.9920    -0.4520 C.3   1 <1>  -0.0990 
 16 O        7.4430     0.9930    -1.4740 O.2   1 <1>  -0.5700 
 17 C        4.9710     5.6020    -0.7160 C.ar  1 <1>  -0.1500 
 18 C        5.8980     5.7250     1.4860 C.ar  1 <1>  -0.1500 
 19 C        4.9040     6.9830    -0.7630 C.ar  1 <1>  -0.1500 
 20 C        5.8310     7.1070     1.4410 C.ar  1 <1>  -0.1500 
 21 C        5.3310     7.7460     0.3100 C.ar  1 <1>   0.0820 
 22 O        5.2300     9.0930     0.1840 O.3   1 <1>  -0.3630 
 23 C        5.5330     9.9520     1.2600 C.3   1 <1>   0.0400 
 24 H       -1.9870     1.6400     0.0890 H     1 <1>   0.0800 
 25 H       -0.9190     3.0550     0.1110 H     1 <1>   0.0800 
 26 H       -0.7080     1.7710     1.3100 H     1 <1>   0.0800 
 27 H        1.8840     0.6890    -2.8970 H     1 <1>   0.0800 
 28 H        2.3450    -0.6210    -1.8260 H     1 <1>   0.0800 
 29 H        3.5390     0.1850    -2.8210 H     1 <1>   0.0800 
 30 H        5.1750     0.3560    -1.8600 H     1 <1>   0.3700 
 31 H        5.7990     3.1330     1.4710 H     1 <1>   0.0800 
 32 H        7.6300     2.9610     0.1150 H     1 <1>   0.0800 
 33 H        6.8590     3.7070    -1.2410 H     1 <1>   0.0800 
 34 H        4.6280     5.0340    -1.5620 H     1 <1>   0.1500 
 35 H        6.2800     5.2500     2.3730 H     1 <1>   0.1500 
 36 H        4.5160     7.4800    -1.6330 H     1 <1>   0.1500 
 37 H        6.1670     7.6660     2.2930 H     1 <1>   0.1500 
 38 H        5.3420    10.9610     0.9450 H     1 <1>   0.0800 
 39 H        6.5720     9.8390     1.5140 H     1 <1>   0.0800 
 40 H        4.9020     9.7020     2.0940 H     1 <1>   0.0800 
@<TRIPOS>BOND
  1   1   2  1   
  2   1   3  1   
  3   2   4  2   
  4   2   5  1   
  5   3  24  1   
  6   3  25  1   
  7   3  26  1   
  8   4   6  1   
  9   5   7  1   
 10   5   8  1   
 11   6   9  2   
 12   6  10  1   
 13   7  10  2   
 14   7  11  1   
 15   8  27  1   
 16   8  28  1   
 17   8  29  1   
 18  10  12  1   
 19  11  13  am  
 20  11  30  1   
 21  12  14  1   
 22  12  15  1   
 23  12  31  1   
 24  13  15  1   
 25  13  16  2   
 26  14  17  ar  
 27  14  18  ar  
 28  15  32  1   
 29  15  33  1   
 30  17  19  ar  
 31  17  34  1   
 32  18  20  ar  
 33  18  35  1   
 34  19  21  ar  
 35  19  36  1   
 36  20  21  ar  
 37  20  37  1   
 38  21  22  1   
 39  22  23  1   
 40  23  38  1   
 41  23  39  1   
 42  23  40  1   
@<TRIPOS>SUBSTRUCTURE
  1 ****  10 GROUP 4 **** **** 0

# MOE 2024.06 (io_trps.svl 2023.06)
