@<TRIPOS>MOLECULE
(2-Methyl-6,7-dihydro-5,8-dioxa-1,3-diaza-cyclopenta[b]naphthalen-1-yl)-acetic a
29 31 1 0 0 
SMALL
USER_CHARGES


@<TRIPOS>ATOM
  1 O        1.3470     0.5000     0.9920 O.co2 1 <1>  -0.9000 
  2 C        0.8970     1.2450     0.1170 C.2   1 <1>   0.9060 
  3 O       -0.3160     1.3710    -0.0880 O.co2 1 <1>  -0.9000 
  4 C        1.8570     1.9690    -0.7900 C.3   1 <1>  -0.0100 
  5 N        2.3420     3.2460    -0.2150 N.pl3 1 <1>   0.0480 
  6 C        3.6520     3.6060    -0.0850 C.ar  1 <1>  -0.1520 
  7 C        1.6360     4.3910     0.0300 C.2   1 <1>   0.0060 
  8 C        3.6410     4.9520     0.2310 C.ar  1 <1>   0.2270 
  9 C        4.8560     2.9050    -0.2080 C.ar  1 <1>  -0.1500 
 10 N        2.3660     5.4200     0.2960 N.2   1 <1>  -0.5650 
 11 C        0.1220     4.4480    -0.0080 C.3   1 <1>  -0.0600 
 12 C        4.8370     5.6420     0.4250 C.ar  1 <1>  -0.1500 
 13 C        6.0380     3.5860    -0.0150 C.ar  1 <1>   0.0820 
 14 C        6.0280     4.9650     0.2960 C.ar  1 <1>   0.0820 
 15 O        7.2120     2.9090    -0.1270 O.3   1 <1>  -0.3630 
 16 O        7.1940     5.6480     0.4730 O.3   1 <1>  -0.3630 
 17 C        8.3630     3.5350     0.4040 C.3   1 <1>   0.1200 
 18 C        8.3760     5.0190     0.0200 C.3   1 <1>   0.1200 
 19 H        1.3590     2.1720    -1.7170 H     1 <1>   0.0800 
 20 H        2.6870     1.3190    -0.9760 H     1 <1>   0.0800 
 21 H        4.8590     1.8560    -0.4370 H     1 <1>   0.1500 
 22 H       -0.2820     3.8730     0.8060 H     1 <1>   0.0800 
 23 H       -0.2460     4.0440    -0.9330 H     1 <1>   0.0800 
 24 H       -0.2120     5.4640     0.0880 H     1 <1>   0.0800 
 25 H        4.8040     6.6860     0.6670 H     1 <1>   0.1500 
 26 H        9.2260     3.0290     0.0100 H     1 <1>   0.0800 
 27 H        8.3420     3.4230     1.4730 H     1 <1>   0.0800 
 28 H        9.2120     5.5230     0.4690 H     1 <1>   0.0800 
 29 H        8.4260     5.1300    -1.0490 H     1 <1>   0.0800 
@<TRIPOS>BOND
  1   1   2  ar  
  2   2   3  ar  
  3   2   4  1   
  4   4   5  1   
  5   4  19  1   
  6   4  20  1   
  7   5   6  1   
  8   5   7  1   
  9   6   8  ar  
 10   6   9  ar  
 11   7  10  2   
 12   7  11  1   
 13   8  10  1   
 14   8  12  ar  
 15   9  13  ar  
 16   9  21  1   
 17  11  22  1   
 18  11  23  1   
 19  11  24  1   
 20  12  14  ar  
 21  12  25  1   
 22  13  14  ar  
 23  13  15  1   
 24  14  16  1   
 25  15  17  1   
 26  16  18  1   
 27  17  18  1   
 28  17  26  1   
 29  17  27  1   
 30  18  28  1   
 31  18  29  1   
@<TRIPOS>SUBSTRUCTURE
  1 ****   6 GROUP 4 **** **** 0

# MOE 2024.06 (io_trps.svl 2023.06)
