@<TRIPOS>MOLECULE
5-Oxo-4-oxa-tricyclo[4.2.1.0*3,7*]nonane-9-carboxylic acid (4-methoxy-phenyl)-am
38 41 1 0 0 
SMALL
USER_CHARGES


@<TRIPOS>ATOM
  1 O       -0.3290     0.7990     1.7750 O.2   1 <1>  -0.5700 
  2 C       -1.0840     1.2740     0.9710 C.2   1 <1>   0.6590 
  3 O       -0.9920     2.5820     0.5150 O.3   1 <1>  -0.4300 
  4 C       -2.3100     0.4780     0.3490 C.3   1 <1>  -0.0190 
  5 C       -1.9570     2.9390    -0.5500 C.3   1 <1>   0.2000 
  6 C       -3.9720     0.6070     0.8720 C.3   1 <1>  -0.0190 
  7 C       -2.2870     1.4820    -0.7810 C.3   1 <1>  -0.0800 
  8 C       -3.5390     3.5870    -0.2060 C.3   1 <1>  -0.1600 
  9 C       -4.8540    -0.5020     0.2910 C.2   1 <1>   0.5690 
 10 C       -4.4390     2.2490     0.4750 C.3   1 <1>  -0.0800 
 11 C       -3.4110     1.8960    -0.0870 C.3   1 <1>  -0.1600 
 12 O       -5.7220    -0.2170    -0.4970 O.2   1 <1>  -0.5700 
 13 N       -4.5910    -1.7810     0.7020 N.am  1 <1>  -0.5470 
 14 C       -5.1890    -3.0060     0.3590 C.ar  1 <1>   0.1170 
 15 C       -6.4670    -3.1070    -0.1830 C.ar  1 <1>  -0.1500 
 16 C       -4.4760    -4.1780     0.5860 C.ar  1 <1>  -0.1500 
 17 C       -7.0090    -4.3420    -0.4920 C.ar  1 <1>  -0.1500 
 18 C       -5.0130    -5.4160     0.2790 C.ar  1 <1>  -0.1500 
 19 C       -6.2910    -5.5030    -0.2650 C.ar  1 <1>   0.0820 
 20 O       -6.8970    -6.6740    -0.5970 O.3   1 <1>  -0.3630 
 21 C       -6.2380    -7.9090    -0.4230 C.3   1 <1>   0.0400 
 22 H       -2.0180    -0.5060     0.0300 H     1 <1>   0.0800 
 23 H       -1.4400     3.4120    -1.3680 H     1 <1>   0.0800 
 24 H       -4.0060     0.4800     1.9440 H     1 <1>   0.0800 
 25 H       -2.4790     1.1430    -1.7910 H     1 <1>   0.0800 
 26 H       -4.0070     3.9600    -1.1080 H     1 <1>   0.0800 
 27 H       -3.4610     4.4170     0.4790 H     1 <1>   0.0800 
 28 H       -4.7580     2.6430     1.4410 H     1 <1>   0.0800 
 29 H       -3.0200     2.2680     1.0920 H     1 <1>   0.0800 
 30 H       -4.0850     1.6870    -0.9780 H     1 <1>   0.0800 
 31 H       -3.8120    -1.8730     1.3500 H     1 <1>   0.3700 
 32 H       -7.0520    -2.2250    -0.3640 H     1 <1>   0.1500 
 33 H       -3.4870    -4.1260     1.0030 H     1 <1>   0.1500 
 34 H       -7.9960    -4.4110    -0.9120 H     1 <1>   0.1500 
 35 H       -4.4280    -6.2950     0.4690 H     1 <1>   0.1500 
 36 H       -6.8980    -8.6880    -0.7570 H     1 <1>   0.0800 
 37 H       -6.0150    -8.0410     0.6210 H     1 <1>   0.0800 
 38 H       -5.3400    -7.9110    -1.0150 H     1 <1>   0.0800 
@<TRIPOS>BOND
  1   1   2  2   
  2   2   3  1   
  3   2   4  1   
  4   3   5  1   
  5   4   6  1   
  6   4   7  1   
  7   4  22  1   
  8   5   7  1   
  9   5   8  1   
 10   5  23  1   
 11   6   9  1   
 12   6  10  1   
 13   6  24  1   
 14   7  11  1   
 15   7  25  1   
 16   8  10  1   
 17   8  26  1   
 18   8  27  1   
 19   9  12  2   
 20   9  13  am  
 21  10  11  1   
 22  10  28  1   
 23  11  29  1   
 24  11  30  1   
 25  13  14  1   
 26  13  31  1   
 27  14  15  ar  
 28  14  16  ar  
 29  15  17  ar  
 30  15  32  1   
 31  16  18  ar  
 32  16  33  1   
 33  17  19  ar  
 34  17  34  1   
 35  18  19  ar  
 36  18  35  1   
 37  19  20  1   
 38  20  21  1   
 39  21  36  1   
 40  21  37  1   
 41  21  38  1   
@<TRIPOS>SUBSTRUCTURE
  1 ****  13 GROUP 4 **** **** 0

# MOE 2024.06 (io_trps.svl 2023.06)
