@<TRIPOS>MOLECULE
6-(5-Methyl-2-oxo-imidazolidin-4-yl)-hexanoic acid (3-fluoro-2-methyl-phenyl)-am
47 48 1 0 0 
SMALL
USER_CHARGES


@<TRIPOS>ATOM
  1 F       -1.1780     0.6240    -1.6160 F     1 <1>  -0.1900 
  2 C       -2.0370     0.3980    -0.6560 C.ar  1 <1>   0.1900 
  3 C       -2.8670     1.4200    -0.2170 C.ar  1 <1>  -0.1440 
  4 C       -2.0660    -0.8770    -0.1220 C.ar  1 <1>  -0.1500 
  5 C       -3.7650     1.1320     0.8120 C.ar  1 <1>   0.1170 
  6 C       -2.8120     2.8180    -0.8360 C.3   1 <1>  -0.0970 
  7 C       -2.9580    -1.1500     0.8990 C.ar  1 <1>  -0.1500 
  8 N       -4.6230     2.1190     1.3110 N.am  1 <1>  -0.5470 
  9 C       -3.7950    -0.1490     1.3600 C.ar  1 <1>  -0.1500 
 10 C       -5.9770     2.1470     1.4100 C.2   1 <1>   0.5690 
 11 O       -6.5100     3.0980     1.9220 O.2   1 <1>  -0.5700 
 12 C       -6.8250     0.9970     0.8760 C.3   1 <1>  -0.0990 
 13 C       -8.1920     1.4490     0.3280 C.3   1 <1>  -0.1600 
 14 C       -8.9920     0.2620    -0.2320 C.3   1 <1>  -0.1600 
 15 C      -10.3150     0.6850    -0.8890 C.3   1 <1>  -0.1600 
 16 C      -11.3200     1.2850     0.1120 C.3   1 <1>  -0.1600 
 17 C      -12.6980     1.5340    -0.5260 C.3   1 <1>   0.2200 
 18 N      -13.4970     2.4120     0.3430 N.am  1 <1>  -0.7300 
 19 C      -13.6550     0.3200    -0.7540 C.3   1 <1>   0.2200 
 20 C      -14.7150     1.9060     0.5600 C.2   1 <1>   0.6900 
 21 N      -14.9130     0.7940    -0.1580 N.am  1 <1>  -0.7300 
 22 C      -13.3080    -1.0000    -0.0560 C.3   1 <1>  -0.2400 
 23 O      -15.4960     2.3340     1.3780 O.2   1 <1>  -0.5700 
 24 H       -1.4030    -1.6350    -0.5000 H     1 <1>   0.1500 
 25 H       -2.2240     2.8330    -1.7360 H     1 <1>   0.0800 
 26 H       -2.3780     3.5100    -0.1370 H     1 <1>   0.0800 
 27 H       -3.8030     3.1520    -1.0880 H     1 <1>   0.0800 
 28 H       -2.9970    -2.1340     1.3340 H     1 <1>   0.1500 
 29 H       -4.1880     2.9910     1.6110 H     1 <1>   0.3700 
 30 H       -4.4780    -0.3610     2.1630 H     1 <1>   0.1500 
 31 H       -6.9760     0.2960     1.6760 H     1 <1>   0.0800 
 32 H       -6.2880     0.5000     0.0890 H     1 <1>   0.0800 
 33 H       -8.0350     2.1790    -0.4480 H     1 <1>   0.0800 
 34 H       -8.7430     1.9220     1.1220 H     1 <1>   0.0800 
 35 H       -9.1920    -0.4430     0.5570 H     1 <1>   0.0800 
 36 H       -8.3940    -0.2410    -0.9730 H     1 <1>   0.0800 
 37 H      -10.7420    -0.1810    -1.3630 H     1 <1>   0.0800 
 38 H      -10.1110     1.4030    -1.6660 H     1 <1>   0.0800 
 39 H      -10.9330     2.2310     0.4450 H     1 <1>   0.0800 
 40 H      -11.4170     0.6500     0.9730 H     1 <1>   0.0800 
 41 H      -12.5580     2.0430    -1.4650 H     1 <1>   0.0800 
 42 H      -13.0790     3.0360     1.0300 H     1 <1>   0.3700 
 43 H      -13.7890     0.1540    -1.8090 H     1 <1>   0.0800 
 44 H      -15.6280     0.1420     0.1570 H     1 <1>   0.3700 
 45 H      -13.2160    -0.8560     1.0060 H     1 <1>   0.0800 
 46 H      -12.3860    -1.4000    -0.4320 H     1 <1>   0.0800 
 47 H      -14.0790    -1.7250    -0.2440 H     1 <1>   0.0800 
@<TRIPOS>BOND
  1   1   2  1   
  2   2   3  ar  
  3   2   4  ar  
  4   3   5  ar  
  5   3   6  1   
  6   4   7  ar  
  7   4  24  1   
  8   5   8  1   
  9   5   9  ar  
 10   6  25  1   
 11   6  26  1   
 12   6  27  1   
 13   7   9  ar  
 14   7  28  1   
 15   8  10  am  
 16   8  29  1   
 17   9  30  1   
 18  10  11  2   
 19  10  12  1   
 20  12  13  1   
 21  12  31  1   
 22  12  32  1   
 23  13  14  1   
 24  13  33  1   
 25  13  34  1   
 26  14  15  1   
 27  14  35  1   
 28  14  36  1   
 29  15  16  1   
 30  15  37  1   
 31  15  38  1   
 32  16  17  1   
 33  16  39  1   
 34  16  40  1   
 35  17  18  1   
 36  17  19  1   
 37  17  41  1   
 38  18  20  am  
 39  18  42  1   
 40  19  21  1   
 41  19  22  1   
 42  19  43  1   
 43  20  21  am  
 44  20  23  2   
 45  21  44  1   
 46  22  45  1   
 47  22  46  1   
 48  22  47  1   
@<TRIPOS>SUBSTRUCTURE
  1 ****  13 GROUP 4 **** **** 0

# MOE 2024.06 (io_trps.svl 2023.06)
