@<TRIPOS>MOLECULE
5-(2-Methoxy-phenyl)-1-methyl-2-methylsulfanyl-5,8-dihydro-1H,6H-pyrido[2,3-d]py
40 42 1 0 0 
SMALL
USER_CHARGES


@<TRIPOS>ATOM
  1 S       -0.1510     0.5610     0.2970 S.3   1 <1>  -0.3710 
  2 C        1.4630     1.3300     0.3380 C.2   1 <1>   0.6410 
  3 C       -1.2400     1.7060     1.2610 C.3   1 <1>  -0.0100 
  4 N        1.5570     2.4350     0.9700 N.2   1 <1>  -0.6610 
  5 N        2.4880     0.6710    -0.3050 N.pl3 1 <1>  -0.5190 
  6 C        2.7850     3.0160     1.0190 C.2   1 <1>   0.7670 
  7 C        3.7420     1.2320    -0.2450 C.2   1 <1>   0.2090 
  8 C        2.2020    -0.5770    -1.0800 C.3   1 <1>   0.1290 
  9 O        2.8820     4.0240     1.7080 O.2   1 <1>  -0.5700 
 10 C        3.8950     2.4460     0.3500 C.2   1 <1>  -0.1240 
 11 N        4.8270     0.5390    -0.7300 N.am  1 <1>  -0.5390 
 12 C        5.2600     3.1510     0.3650 C.3   1 <1>   0.2020 
 13 C        6.0910     1.0180    -0.7760 C.2   1 <1>   0.5690 
 14 C        5.1880     4.6290    -0.0400 C.ar  1 <1>  -0.1440 
 15 C        6.3090     2.4950    -0.5570 C.3   1 <1>  -0.0990 
 16 O        7.0160     0.2910    -1.0210 O.2   1 <1>  -0.5700 
 17 C        5.9870     5.5800     0.5950 C.ar  1 <1>   0.0830 
 18 C        4.3370     5.0340    -1.0610 C.ar  1 <1>  -0.1500 
 19 O        6.8340     5.1540     1.5700 O.3   1 <1>  -0.3630 
 20 C        5.9090     6.9170     0.2110 C.ar  1 <1>  -0.1500 
 21 C        4.2660     6.3630    -1.4380 C.ar  1 <1>  -0.1500 
 22 C        7.4560     6.0620     2.4520 C.3   1 <1>   0.0400 
 23 C        5.0500     7.3050    -0.8000 C.ar  1 <1>  -0.1500 
 24 H       -2.2300     1.2900     1.2740 H     1 <1>   0.0800 
 25 H       -1.2280     2.6640     0.7710 H     1 <1>   0.0800 
 26 H       -0.8390     1.7840     2.2560 H     1 <1>   0.0800 
 27 H        1.9890    -1.3830    -0.4000 H     1 <1>   0.0800 
 28 H        3.0270    -0.8550    -1.7080 H     1 <1>   0.0800 
 29 H        1.3500    -0.4240    -1.7210 H     1 <1>   0.0800 
 30 H        4.7470    -0.4530    -0.9400 H     1 <1>   0.3700 
 31 H        5.6120     3.0690     1.3790 H     1 <1>   0.0800 
 32 H        7.2910     2.6580    -0.1530 H     1 <1>   0.0800 
 33 H        6.2780     2.9560    -1.5270 H     1 <1>   0.0800 
 34 H        3.7180     4.3200    -1.5750 H     1 <1>   0.1500 
 35 H        6.5110     7.6690     0.6830 H     1 <1>   0.1500 
 36 H        3.5970     6.6640    -2.2260 H     1 <1>   0.1500 
 37 H        7.9720     5.4940     3.2050 H     1 <1>   0.0800 
 38 H        6.7000     6.6750     2.9110 H     1 <1>   0.0800 
 39 H        8.1590     6.6600     1.9010 H     1 <1>   0.0800 
 40 H        4.9920     8.3390    -1.0920 H     1 <1>   0.1500 
@<TRIPOS>BOND
  1   1   2  1   
  2   1   3  1   
  3   2   4  2   
  4   2   5  1   
  5   3  24  1   
  6   3  25  1   
  7   3  26  1   
  8   4   6  1   
  9   5   7  1   
 10   5   8  1   
 11   6   9  2   
 12   6  10  1   
 13   7  10  2   
 14   7  11  1   
 15   8  27  1   
 16   8  28  1   
 17   8  29  1   
 18  10  12  1   
 19  11  13  am  
 20  11  30  1   
 21  12  14  1   
 22  12  15  1   
 23  12  31  1   
 24  13  15  1   
 25  13  16  2   
 26  14  17  ar  
 27  14  18  ar  
 28  15  32  1   
 29  15  33  1   
 30  17  19  1   
 31  17  20  ar  
 32  18  21  ar  
 33  18  34  1   
 34  19  22  1   
 35  20  23  ar  
 36  20  35  1   
 37  21  23  ar  
 38  21  36  1   
 39  22  37  1   
 40  22  38  1   
 41  22  39  1   
 42  23  40  1   
@<TRIPOS>SUBSTRUCTURE
  1 ****  10 GROUP 4 **** **** 0

# MOE 2024.06 (io_trps.svl 2023.06)
