@<TRIPOS>MOLECULE
[2-(2-Oxo-pyrrolidin-1-yl)-ethoxy]-acetic acid
25 25 1 0 0 
SMALL
USER_CHARGES


@<TRIPOS>ATOM
  1 O        0.7990    -0.5740     0.8970 O.2   1 <1>  -0.5700 
  2 C        0.5740    -1.6700     0.4480 C.2   1 <1>   0.5690 
  3 N        1.4170    -2.4180    -0.2960 N.am  1 <1>  -0.6600 
  4 C       -0.7230    -2.3970     0.6710 C.3   1 <1>  -0.0990 
  5 C        0.8510    -3.7180    -0.6840 C.3   1 <1>   0.1400 
  6 C        2.7840    -2.0190    -0.7280 C.3   1 <1>   0.1400 
  7 C       -0.6190    -3.6280    -0.2480 C.3   1 <1>  -0.1600 
  8 C        3.8400    -2.6050     0.2080 C.3   1 <1>   0.1200 
  9 O        5.0820    -2.4720    -0.3990 O.3   1 <1>  -0.5600 
 10 C        6.1550    -2.9560     0.3910 C.3   1 <1>   0.0140 
 11 C        7.5190    -2.9970    -0.3050 C.2   1 <1>   0.9060 
 12 O        8.3020    -2.0500    -0.1520 O.co2 1 <1>  -0.9000 
 13 O        7.8450    -4.0210    -0.9230 O.co2 1 <1>  -0.9000 
 14 H       -1.5550    -1.7690     0.4090 H     1 <1>   0.0800 
 15 H       -0.7890    -2.6840     1.7040 H     1 <1>   0.0800 
 16 H        1.3640    -4.5050    -0.1570 H     1 <1>   0.0800 
 17 H        0.9380    -3.8690    -1.7470 H     1 <1>   0.0800 
 18 H        2.8650    -0.9460    -0.7200 H     1 <1>   0.0800 
 19 H        2.9570    -2.3720    -1.7300 H     1 <1>   0.0800 
 20 H       -1.2320    -3.4810    -1.1200 H     1 <1>   0.0800 
 21 H       -0.9360    -4.5270     0.2490 H     1 <1>   0.0800 
 22 H        3.6600    -3.6530     0.3700 H     1 <1>   0.0800 
 23 H        3.8490    -2.0720     1.1420 H     1 <1>   0.0800 
 24 H        5.9260    -3.9580     0.7000 H     1 <1>   0.0800 
 25 H        6.2450    -2.3260     1.2550 H     1 <1>   0.0800 
@<TRIPOS>BOND
  1   1   2  2   
  2   2   3  am  
  3   2   4  1   
  4   3   5  1   
  5   3   6  1   
  6   4   7  1   
  7   4  14  1   
  8   4  15  1   
  9   5   7  1   
 10   5  16  1   
 11   5  17  1   
 12   6   8  1   
 13   6  18  1   
 14   6  19  1   
 15   7  20  1   
 16   7  21  1   
 17   8   9  1   
 18   8  22  1   
 19   8  23  1   
 20   9  10  1   
 21  10  11  1   
 22  10  24  1   
 23  10  25  1   
 24  11  12  ar  
 25  11  13  ar  
@<TRIPOS>SUBSTRUCTURE
  1 ****   8 GROUP 4 **** **** 0

# MOE 2024.06 (io_trps.svl 2023.06)
