@<TRIPOS>MOLECULE
1-[3-(4-Chloro-phenyl)-[1,2,4]oxadiazol-5-ylmethyl]-3-cyclohexyl-urea
42 44 1 0 0 
SMALL
USER_CHARGES


@<TRIPOS>ATOM
  1 CL      -0.9230     1.1720    -1.9700 Cl    1 <1>  -0.1770 
  2 C       -2.5250     0.9980    -1.3020 C.ar  1 <1>   0.1770 
  3 C       -3.1940     2.1130    -0.8380 C.ar  1 <1>  -0.1500 
  4 C       -3.1060    -0.2540    -1.2440 C.ar  1 <1>  -0.1500 
  5 C       -4.4650     1.9680    -0.3100 C.ar  1 <1>  -0.1500 
  6 C       -4.3770    -0.3860    -0.7130 C.ar  1 <1>  -0.1500 
  7 C       -5.0900     0.7190    -0.2330 C.ar  1 <1>   0.0540 
  8 C       -6.4260     0.5810     0.3240 C.2   1 <1>   0.4620 
  9 N       -7.1460     1.5390     0.7920 N.2   1 <1>  -0.4100 
 10 N       -7.0590    -0.5940     0.4030 N.2   1 <1>  -0.5650 
 11 O       -8.2700     1.0350     1.1950 O.3   1 <1>  -0.0190 
 12 C       -8.1570    -0.2410     0.9360 C.2   1 <1>   0.2980 
 13 C       -9.3220    -1.1570     1.2800 C.3   1 <1>   0.3200 
 14 N      -10.4500    -0.9650     0.3340 N.am  1 <1>  -0.7300 
 15 C      -11.7380    -0.8740     0.7140 C.2   1 <1>   0.6900 
 16 O      -12.0490    -1.0200     1.8790 O.2   1 <1>  -0.5700 
 17 N      -12.6580    -0.6200    -0.2380 N.am  1 <1>  -0.7300 
 18 C      -14.1040    -0.4840    -0.0040 C.3   1 <1>   0.2200 
 19 C      -14.8420    -1.5380    -0.8350 C.3   1 <1>  -0.1600 
 20 C      -14.5380     0.9340    -0.3910 C.3   1 <1>  -0.1600 
 21 C      -16.3650    -1.3750    -0.7140 C.3   1 <1>  -0.1600 
 22 C      -16.0600     1.1020    -0.2690 C.3   1 <1>  -0.1600 
 23 C      -16.8030     0.0450    -1.0980 C.3   1 <1>  -0.1600 
 24 H       -2.7240     3.0780    -0.8920 H     1 <1>   0.1500 
 25 H       -2.5680    -1.1090    -1.6100 H     1 <1>   0.1500 
 26 H       -4.9840     2.8410     0.0510 H     1 <1>   0.1500 
 27 H       -4.8260    -1.3630    -0.6700 H     1 <1>   0.1500 
 28 H       -9.6390    -0.9590     2.2890 H     1 <1>   0.0800 
 29 H       -8.9930    -2.1800     1.2260 H     1 <1>   0.0800 
 30 H      -10.2020    -0.8380    -0.6430 H     1 <1>   0.3700 
 31 H      -12.3580    -0.4830    -1.1980 H     1 <1>   0.3700 
 32 H      -14.3230    -0.6440     1.0400 H     1 <1>   0.0800 
 33 H      -14.5620    -2.5180    -0.4920 H     1 <1>   0.0800 
 34 H      -14.5620    -1.4440    -1.8690 H     1 <1>   0.0800 
 35 H      -14.2440     1.1380    -1.4050 H     1 <1>   0.0800 
 36 H      -14.0500     1.6420     0.2560 H     1 <1>   0.0800 
 37 H      -16.6640    -1.5770     0.3010 H     1 <1>   0.0800 
 38 H      -16.8560    -2.0900    -1.3510 H     1 <1>   0.0800 
 39 H      -16.3430     2.0860    -0.6010 H     1 <1>   0.0800 
 40 H      -16.3460     1.0080     0.7650 H     1 <1>   0.0800 
 41 H      -17.8630     0.1480    -0.9440 H     1 <1>   0.0800 
 42 H      -16.6050     0.2090    -2.1440 H     1 <1>   0.0800 
@<TRIPOS>BOND
  1   1   2  1   
  2   2   3  ar  
  3   2   4  ar  
  4   3   5  ar  
  5   3  24  1   
  6   4   6  ar  
  7   4  25  1   
  8   5   7  ar  
  9   5  26  1   
 10   6   7  ar  
 11   6  27  1   
 12   7   8  1   
 13   8   9  2   
 14   8  10  1   
 15   9  11  1   
 16  10  12  2   
 17  11  12  1   
 18  12  13  1   
 19  13  14  1   
 20  13  28  1   
 21  13  29  1   
 22  14  15  am  
 23  14  30  1   
 24  15  16  2   
 25  15  17  am  
 26  17  18  1   
 27  17  31  1   
 28  18  19  1   
 29  18  20  1   
 30  18  32  1   
 31  19  21  1   
 32  19  33  1   
 33  19  34  1   
 34  20  22  1   
 35  20  35  1   
 36  20  36  1   
 37  21  23  1   
 38  21  37  1   
 39  21  38  1   
 40  22  23  1   
 41  22  39  1   
 42  22  40  1   
 43  23  41  1   
 44  23  42  1   
@<TRIPOS>SUBSTRUCTURE
  1 ****  12 GROUP 4 **** **** 0

# MOE 2024.06 (io_trps.svl 2023.06)
