@<TRIPOS>MOLECULE
5,5-Dimethyl-3-(5-p-tolyl-2H-pyrazol-3-ylamino)-cyclohex-2-enone
43 45 1 0 0 
SMALL
USER_CHARGES


@<TRIPOS>ATOM
  1 O       -0.6180    -0.2050     0.1850 O.2   1 <1>  -0.5700 
  2 C       -1.1860    -1.2720     0.1450 C.2   1 <1>   0.4950 
  3 C       -2.5710    -1.3780     0.0680 C.2   1 <1>  -0.1360 
  4 C       -0.3460    -2.5310     0.2280 C.3   1 <1>  -0.0990 
  5 C       -3.1720    -2.5670    -0.0570 C.2   1 <1>  -0.0380 
  6 C       -0.7440    -4.0700     0.0210 C.3   1 <1>   0.0000 
  7 N       -4.5480    -2.6800    -0.1150 N.pl3 1 <1>  -0.5830 
  8 C       -2.3220    -3.8320    -0.1570 C.3   1 <1>  -0.0220 
  9 C        0.8150    -4.4520     0.1770 C.3   1 <1>  -0.2400 
 10 C       -0.9980    -5.6520    -0.1640 C.3   1 <1>  -0.2400 
 11 C       -5.4090    -3.7790    -0.2960 C.2   1 <1>   0.3720 
 12 N       -5.0590    -4.9140    -0.8200 N.2   1 <1>  -0.7070 
 13 C       -6.7530    -3.7600     0.0520 C.2   1 <1>  -0.1500 
 14 N       -6.1920    -5.6460    -0.8110 N.pl3 1 <1>   0.3000 
 15 C       -7.2460    -4.9790    -0.2840 C.2   1 <1>  -0.2050 
 16 C       -8.5730    -5.5230    -0.1570 C.ar  1 <1>   0.0530 
 17 C       -9.6910    -4.7390    -0.4240 C.ar  1 <1>  -0.1500 
 18 C       -8.7860    -6.8430     0.2340 C.ar  1 <1>  -0.1500 
 19 C      -10.9700    -5.2520    -0.3140 C.ar  1 <1>  -0.1500 
 20 C      -10.0640    -7.3610     0.3440 C.ar  1 <1>  -0.1500 
 21 C      -11.1650    -6.5670     0.0710 C.ar  1 <1>  -0.1430 
 22 C      -12.5690    -7.1330     0.1890 C.3   1 <1>  -0.0970 
 23 H       -3.1180    -0.4570     0.1130 H     1 <1>   0.1500 
 24 H        0.0540    -2.4350     1.2240 H     1 <1>   0.0800 
 25 H        0.4280    -2.2860    -0.4830 H     1 <1>   0.0800 
 26 H       -5.0720    -1.8120    -0.0090 H     1 <1>   0.4000 
 27 H       -2.5700    -4.1590    -1.1550 H     1 <1>   0.0800 
 28 H       -2.8210    -4.4610     0.5650 H     1 <1>   0.0800 
 29 H        1.5120    -3.7390     0.5910 H     1 <1>   0.0800 
 30 H        1.2270    -4.6750    -0.7940 H     1 <1>   0.0800 
 31 H        1.0080    -5.2930     0.8270 H     1 <1>   0.0800 
 32 H       -1.9380    -6.0090    -0.5590 H     1 <1>   0.0800 
 33 H       -0.9300    -6.1410     0.7940 H     1 <1>   0.0800 
 34 H       -0.3140    -6.1370    -0.8440 H     1 <1>   0.0800 
 35 H       -7.2750    -2.9380     0.5010 H     1 <1>   0.1500 
 36 H       -6.2320    -6.5990    -1.1900 H     1 <1>   0.2700 
 37 H       -9.5540    -3.7170    -0.7270 H     1 <1>   0.1500 
 38 H       -7.9450    -7.4720     0.4640 H     1 <1>   0.1500 
 39 H      -11.8150    -4.6220    -0.5310 H     1 <1>   0.1500 
 40 H      -10.2000    -8.3840     0.6460 H     1 <1>   0.1500 
 41 H      -13.2630    -6.3610     0.4680 H     1 <1>   0.0800 
 42 H      -12.6030    -7.9040     0.9390 H     1 <1>   0.0800 
 43 H      -12.8740    -7.5510    -0.7530 H     1 <1>   0.0800 
@<TRIPOS>BOND
  1   1   2  2   
  2   2   3  1   
  3   2   4  1   
  4   3   5  2   
  5   3  23  1   
  6   4   6  1   
  7   4  24  1   
  8   4  25  1   
  9   5   7  1   
 10   5   8  1   
 11   6   8  1   
 12   6   9  1   
 13   6  10  1   
 14   7  11  1   
 15   7  26  1   
 16   8  27  1   
 17   8  28  1   
 18   9  29  1   
 19   9  30  1   
 20   9  31  1   
 21  10  32  1   
 22  10  33  1   
 23  10  34  1   
 24  11  12  2   
 25  11  13  1   
 26  12  14  1   
 27  13  15  2   
 28  13  35  1   
 29  14  15  1   
 30  14  36  1   
 31  15  16  1   
 32  16  17  ar  
 33  16  18  ar  
 34  17  19  ar  
 35  17  37  1   
 36  18  20  ar  
 37  18  38  1   
 38  19  21  ar  
 39  19  39  1   
 40  20  21  ar  
 41  20  40  1   
 42  21  22  1   
 43  22  41  1   
 44  22  42  1   
 45  22  43  1   
@<TRIPOS>SUBSTRUCTURE
  1 ****  11 GROUP 4 **** **** 0

# MOE 2024.06 (io_trps.svl 2023.06)
