@<TRIPOS>MOLECULE
Morpholine-4-carboxylic acid [3-(4-chloro-phenyl)-[1,2,4]oxadiazol-5-ylmethyl]-e
43 45 1 0 0 
SMALL
USER_CHARGES


@<TRIPOS>ATOM
  1 CL      -1.0760     1.0770     0.6730 Cl    1 <1>  -0.1770 
  2 C       -2.7840     0.8220     0.4280 C.ar  1 <1>   0.1770 
  3 C       -3.2280     0.2790    -0.7610 C.ar  1 <1>  -0.1500 
  4 C       -3.6740     1.1670     1.4260 C.ar  1 <1>  -0.1500 
  5 C       -4.5850     0.0790    -0.9490 C.ar  1 <1>  -0.1500 
  6 C       -5.0280     0.9630     1.2270 C.ar  1 <1>  -0.1500 
  7 C       -5.5190     0.4150     0.0360 C.ar  1 <1>   0.0540 
  8 C       -6.9420     0.2020    -0.1750 C.2   1 <1>   0.4620 
  9 N       -7.4760    -0.2980    -1.2320 N.2   1 <1>  -0.4100 
 10 N       -7.8630     0.5180     0.7410 N.2   1 <1>  -0.5650 
 11 O       -8.7600    -0.3230    -1.0580 O.3   1 <1>  -0.0190 
 12 C       -8.9290     0.1780     0.1370 C.2   1 <1>   0.2980 
 13 C      -10.3450     0.3030     0.6810 C.3   1 <1>   0.3200 
 14 N      -11.1750     1.2940    -0.0750 N.am  1 <1>  -0.6600 
 15 C      -12.2190     0.8540    -0.8430 C.2   1 <1>   0.6900 
 16 C      -10.5810     2.6400    -0.3120 C.3   1 <1>   0.1400 
 17 O      -12.4320     1.3570    -1.9310 O.2   1 <1>  -0.5700 
 18 N      -13.0340    -0.1490    -0.3890 N.am  1 <1>  -0.6600 
 19 C      -10.3860     3.3770     1.0120 C.3   1 <1>  -0.2400 
 20 C      -13.8620    -0.9390    -1.3470 C.3   1 <1>   0.1400 
 21 C      -13.6370    -0.0760     0.9730 C.3   1 <1>   0.1400 
 22 C      -15.3270    -0.4760    -1.3030 C.3   1 <1>   0.1200 
 23 C      -15.1190     0.3300     0.8870 C.3   1 <1>   0.1200 
 24 O      -15.8130    -0.5120     0.0110 O.3   1 <1>  -0.5600 
 25 H       -2.5190     0.0170    -1.5260 H     1 <1>   0.1500 
 26 H       -3.3070     1.5890     2.3450 H     1 <1>   0.1500 
 27 H       -4.9270    -0.3450    -1.8780 H     1 <1>   0.1500 
 28 H       -5.7170     1.2330     2.0080 H     1 <1>   0.1500 
 29 H      -10.2980     0.6020     1.7120 H     1 <1>   0.0800 
 30 H      -10.7980    -0.6710     0.6430 H     1 <1>   0.0800 
 31 H      -11.2380     3.2220    -0.9370 H     1 <1>   0.0800 
 32 H       -9.6420     2.5420    -0.8310 H     1 <1>   0.0800 
 33 H      -10.0470     4.3770     0.8140 H     1 <1>   0.0800 
 34 H      -11.3170     3.4330     1.5460 H     1 <1>   0.0800 
 35 H       -9.6440     2.8890     1.6180 H     1 <1>   0.0800 
 36 H      -13.8110    -1.9810    -1.0860 H     1 <1>   0.0800 
 37 H      -13.4810    -0.8300    -2.3480 H     1 <1>   0.0800 
 38 H      -13.5600    -1.0370     1.4500 H     1 <1>   0.0800 
 39 H      -13.1130     0.6430     1.5770 H     1 <1>   0.0800 
 40 H      -15.9410    -1.1260    -1.9000 H     1 <1>   0.0800 
 41 H      -15.4150     0.5280    -1.6800 H     1 <1>   0.0800 
 42 H      -15.2130     1.3440     0.5380 H     1 <1>   0.0800 
 43 H      -15.5840     0.2520     1.8540 H     1 <1>   0.0800 
@<TRIPOS>BOND
  1   1   2  1   
  2   2   3  ar  
  3   2   4  ar  
  4   3   5  ar  
  5   3  25  1   
  6   4   6  ar  
  7   4  26  1   
  8   5   7  ar  
  9   5  27  1   
 10   6   7  ar  
 11   6  28  1   
 12   7   8  1   
 13   8   9  2   
 14   8  10  1   
 15   9  11  1   
 16  10  12  2   
 17  11  12  1   
 18  12  13  1   
 19  13  14  1   
 20  13  29  1   
 21  13  30  1   
 22  14  15  am  
 23  14  16  1   
 24  15  17  2   
 25  15  18  am  
 26  16  19  1   
 27  16  31  1   
 28  16  32  1   
 29  18  20  1   
 30  18  21  1   
 31  19  33  1   
 32  19  34  1   
 33  19  35  1   
 34  20  22  1   
 35  20  36  1   
 36  20  37  1   
 37  21  23  1   
 38  21  38  1   
 39  21  39  1   
 40  22  24  1   
 41  22  40  1   
 42  22  41  1   
 43  23  24  1   
 44  23  42  1   
 45  23  43  1   
@<TRIPOS>SUBSTRUCTURE
  1 ****  12 GROUP 4 **** **** 0

# MOE 2024.06 (io_trps.svl 2023.06)
