@<TRIPOS>MOLECULE
1-(Furan-2-carbonyl)-piperidine-4-carboxylic acid (4-chloro-phenyl)-amide
40 42 1 0 0 
SMALL
USER_CHARGES


@<TRIPOS>ATOM
  1 CL       0.2440    -0.7830    -0.4840 Cl    1 <1>  -0.1770 
  2 C       -1.1160    -1.8440    -0.2110 C.ar  1 <1>   0.1770 
  3 C       -0.9280    -3.0240     0.4830 C.ar  1 <1>  -0.1500 
  4 C       -2.3620    -1.4900    -0.6910 C.ar  1 <1>  -0.1500 
  5 C       -2.0090    -3.8620     0.6970 C.ar  1 <1>  -0.1500 
  6 C       -3.4370    -2.3340    -0.4710 C.ar  1 <1>  -0.1500 
  7 C       -3.2760    -3.5320     0.2220 C.ar  1 <1>   0.1170 
  8 N       -4.3370    -4.4150     0.4790 N.am  1 <1>  -0.5470 
  9 C       -5.5390    -4.5810    -0.1560 C.2   1 <1>   0.5690 
 10 O       -5.8630    -3.9550    -1.1340 O.2   1 <1>  -0.5700 
 11 C       -6.4930    -5.6340     0.4130 C.3   1 <1>  -0.0190 
 12 C       -6.2380    -7.0120    -0.2250 C.3   1 <1>  -0.1600 
 13 C       -7.9760    -5.2500     0.2360 C.3   1 <1>  -0.1600 
 14 C       -7.1780    -8.0770     0.3440 C.3   1 <1>   0.1400 
 15 C       -8.9180    -6.3210     0.7920 C.3   1 <1>   0.1400 
 16 N       -8.5940    -7.6420     0.1830 N.am  1 <1>  -0.6600 
 17 C       -9.4770    -8.3400    -0.6260 C.2   1 <1>   0.7150 
 18 O       -9.0250    -9.1800    -1.3870 O.2   1 <1>  -0.5700 
 19 C      -10.9070    -8.1160    -0.5650 C.2   1 <1>   0.0550 
 20 O      -11.6400    -8.0450    -1.6730 O.3   1 <1>  -0.2800 
 21 C      -11.7380    -7.9530     0.5050 C.2   1 <1>  -0.1500 
 22 C      -12.8950    -7.8400    -1.3440 C.2   1 <1>  -0.0100 
 23 C      -13.0250    -7.7720    -0.0020 C.2   1 <1>  -0.1500 
 24 H        0.0520    -3.2760     0.8460 H     1 <1>   0.1500 
 25 H       -2.4870    -0.5670    -1.2290 H     1 <1>   0.1500 
 26 H       -1.8610    -4.7810     1.2340 H     1 <1>   0.1500 
 27 H       -4.4050    -2.0500    -0.8430 H     1 <1>   0.1500 
 28 H       -4.1610    -5.0690     1.2370 H     1 <1>   0.3700 
 29 H       -6.3040    -5.7110     1.4680 H     1 <1>   0.0800 
 30 H       -5.2200    -7.3140    -0.0550 H     1 <1>   0.0800 
 31 H       -6.3860    -6.9520    -1.2900 H     1 <1>   0.0800 
 32 H       -8.1950    -5.1120    -0.8100 H     1 <1>   0.0800 
 33 H       -8.1690    -4.3140     0.7310 H     1 <1>   0.0800 
 34 H       -6.9770    -8.2250     1.3910 H     1 <1>   0.0800 
 35 H       -7.0050    -9.0150    -0.1570 H     1 <1>   0.0800 
 36 H       -9.9310    -6.0330     0.5740 H     1 <1>   0.0800 
 37 H       -8.8090    -6.3910     1.8610 H     1 <1>   0.0800 
 38 H      -11.4750    -7.9660     1.5470 H     1 <1>   0.1500 
 39 H      -13.6310    -7.7560    -2.1240 H     1 <1>   0.1500 
 40 H      -13.9180    -7.6160     0.5780 H     1 <1>   0.1500 
@<TRIPOS>BOND
  1   1   2  1   
  2   2   3  ar  
  3   2   4  ar  
  4   3   5  ar  
  5   3  24  1   
  6   4   6  ar  
  7   4  25  1   
  8   5   7  ar  
  9   5  26  1   
 10   6   7  ar  
 11   6  27  1   
 12   7   8  1   
 13   8   9  am  
 14   8  28  1   
 15   9  10  2   
 16   9  11  1   
 17  11  12  1   
 18  11  13  1   
 19  11  29  1   
 20  12  14  1   
 21  12  30  1   
 22  12  31  1   
 23  13  15  1   
 24  13  32  1   
 25  13  33  1   
 26  14  16  1   
 27  14  34  1   
 28  14  35  1   
 29  15  16  1   
 30  15  36  1   
 31  15  37  1   
 32  16  17  am  
 33  17  18  2   
 34  17  19  1   
 35  19  20  1   
 36  19  21  2   
 37  20  22  1   
 38  21  23  1   
 39  21  38  1   
 40  22  23  2   
 41  22  39  1   
 42  23  40  1   
@<TRIPOS>SUBSTRUCTURE
  1 ****  11 GROUP 4 **** **** 0

# MOE 2024.06 (io_trps.svl 2023.06)
