@<TRIPOS>MOLECULE
N-Adamantan-1-yl-2-[4-allyl-5-(2-methoxy-phenyl)-4H-[1,2,4]triazol-3-ylsulfanyl]
61 65 1 0 0 
SMALL
USER_CHARGES


@<TRIPOS>ATOM
  1 S        0.4020     0.1290    -0.3410 S.3   1 <1>  -0.2860 
  2 C       -1.0490     1.0670    -0.8260 C.2   1 <1>   0.2420 
  3 C        0.7880    -0.8540    -1.8720 C.3   1 <1>   0.1310 
  4 N       -1.5980     0.9720    -1.9840 N.2   1 <1>  -0.3380 
  5 N       -1.6600     1.9220    -0.0140 N.pl3 1 <1>   0.0480 
  6 C        1.8710    -1.8850    -1.6020 C.2   1 <1>   0.5690 
  7 N       -2.6420     1.7990    -1.9570 N.2   1 <1>  -0.3380 
  8 C       -2.6740     2.3680    -0.7820 C.2   1 <1>   0.1330 
  9 C       -1.3310     2.2520     1.3870 C.3   1 <1>   0.2340 
 10 O        2.6380    -2.1520    -2.4940 O.2   1 <1>  -0.5700 
 11 N        1.9230    -2.4740    -0.3750 N.am  1 <1>  -0.7300 
 12 C       -3.6530     3.3340    -0.3550 C.ar  1 <1>   0.0530 
 13 C       -2.0420     1.2970     2.3320 C.2   1 <1>  -0.2880 
 14 C        2.8710    -3.4820     0.1260 C.3   1 <1>   0.3000 
 15 C       -3.3090     4.6490    -0.0150 C.ar  1 <1>   0.0830 
 16 C       -4.9940     2.9710    -0.2590 C.ar  1 <1>  -0.1500 
 17 C       -1.4380     0.4490     3.1700 C.2   1 <1>  -0.3000 
 18 C        2.7910    -4.7750    -0.7070 C.3   1 <1>  -0.1600 
 19 C        2.4800    -3.8020     1.5810 C.3   1 <1>  -0.1600 
 20 C        4.3110    -2.9350     0.1060 C.3   1 <1>  -0.1600 
 21 O       -2.0340     5.0800    -0.1130 O.3   1 <1>  -0.3620 
 22 C       -4.2640     5.5410     0.4430 C.ar  1 <1>  -0.1500 
 23 C       -5.9520     3.8640     0.1870 C.ar  1 <1>  -0.1500 
 24 C        3.7560    -5.8310    -0.1330 C.3   1 <1>  -0.0800 
 25 C        3.4380    -4.8550     2.1730 C.3   1 <1>  -0.0800 
 26 C        5.2810    -3.9850     0.6830 C.3   1 <1>  -0.0800 
 27 C       -1.5700     5.3790    -1.4130 C.3   1 <1>   0.0400 
 28 C       -5.5870     5.1510     0.5450 C.ar  1 <1>  -0.1500 
 29 C        3.3630    -6.1380     1.3240 C.3   1 <1>  -0.1600 
 30 C        5.1920    -5.2710    -0.1620 C.3   1 <1>  -0.1600 
 31 C        4.8770    -4.3050     2.1350 C.3   1 <1>  -0.1600 
 32 H        1.1060    -0.1580    -2.6260 H     1 <1>   0.0800 
 33 H       -0.1190    -1.3390    -2.1810 H     1 <1>   0.0800 
 34 H       -1.6280     3.2610     1.6010 H     1 <1>   0.0800 
 35 H       -0.2660     2.1850     1.5200 H     1 <1>   0.0800 
 36 H        1.2740    -2.1370     0.3350 H     1 <1>   0.3700 
 37 H       -3.1160     1.3710     2.2590 H     1 <1>   0.1500 
 38 H       -5.2820     1.9720    -0.5380 H     1 <1>   0.1500 
 39 H       -1.9660    -0.2180     3.8310 H     1 <1>   0.1500 
 40 H       -0.3700     0.3460     3.2700 H     1 <1>   0.1500 
 41 H        3.0630    -4.5720    -1.7280 H     1 <1>   0.0800 
 42 H        1.7860    -5.1560    -0.6960 H     1 <1>   0.0800 
 43 H        1.4740    -4.1810     1.6130 H     1 <1>   0.0800 
 44 H        2.5260    -2.9080     2.1770 H     1 <1>   0.0800 
 45 H        4.6030    -2.7060    -0.9030 H     1 <1>   0.0800 
 46 H        4.3680    -2.0310     0.6850 H     1 <1>   0.0800 
 47 H       -3.9690     6.5380     0.7140 H     1 <1>   0.1500 
 48 H       -6.9820     3.5590     0.2560 H     1 <1>   0.1500 
 49 H        3.7040    -6.7300    -0.7230 H     1 <1>   0.0800 
 50 H        3.1590    -5.0730     3.1900 H     1 <1>   0.0800 
 51 H        6.2870    -3.6020     0.6590 H     1 <1>   0.0800 
 52 H       -0.5640     5.7490    -1.3370 H     1 <1>   0.0800 
 53 H       -2.2080     6.1310    -1.8440 H     1 <1>   0.0800 
 54 H       -1.5880     4.4880    -2.0150 H     1 <1>   0.0800 
 55 H       -6.3310     5.8450     0.8970 H     1 <1>   0.1500 
 56 H        4.0260    -6.8820     1.7300 H     1 <1>   0.0800 
 57 H        2.3650    -6.5400     1.3560 H     1 <1>   0.0800 
 58 H        5.4780    -5.0590    -1.1780 H     1 <1>   0.0800 
 59 H        5.8770    -6.0070     0.2220 H     1 <1>   0.0800 
 60 H        5.5550    -5.0310     2.5490 H     1 <1>   0.0800 
 61 H        4.9450    -3.4160     2.7370 H     1 <1>   0.0800 
@<TRIPOS>BOND
  1   1   2  1   
  2   1   3  1   
  3   2   4  2   
  4   2   5  1   
  5   3   6  1   
  6   3  32  1   
  7   3  33  1   
  8   4   7  1   
  9   5   8  1   
 10   5   9  1   
 11   6  10  2   
 12   6  11  am  
 13   7   8  2   
 14   8  12  1   
 15   9  13  1   
 16   9  34  1   
 17   9  35  1   
 18  11  14  1   
 19  11  36  1   
 20  12  15  ar  
 21  12  16  ar  
 22  13  17  2   
 23  13  37  1   
 24  14  18  1   
 25  14  19  1   
 26  14  20  1   
 27  15  21  1   
 28  15  22  ar  
 29  16  23  ar  
 30  16  38  1   
 31  17  39  1   
 32  17  40  1   
 33  18  24  1   
 34  18  41  1   
 35  18  42  1   
 36  19  25  1   
 37  19  43  1   
 38  19  44  1   
 39  20  26  1   
 40  20  45  1   
 41  20  46  1   
 42  21  27  1   
 43  22  28  ar  
 44  22  47  1   
 45  23  28  ar  
 46  23  48  1   
 47  24  29  1   
 48  24  30  1   
 49  24  49  1   
 50  25  29  1   
 51  25  31  1   
 52  25  50  1   
 53  26  30  1   
 54  26  31  1   
 55  26  51  1   
 56  27  52  1   
 57  27  53  1   
 58  27  54  1   
 59  28  55  1   
 60  29  56  1   
 61  29  57  1   
 62  30  58  1   
 63  30  59  1   
 64  31  60  1   
 65  31  61  1   
@<TRIPOS>SUBSTRUCTURE
  1 ****   1 GROUP 4 **** **** 0

# MOE 2024.06 (io_trps.svl 2023.06)
