@<TRIPOS>MOLECULE
5-(2,4-Dimethoxy-phenyl)-1-methyl-2-methylsulfanyl-5,8-dihydro-1H,6H-pyrido[2,3-
44 46 1 0 0 
SMALL
USER_CHARGES


@<TRIPOS>ATOM
  1 S        0.0620     0.7690     0.9000 S.3   1 <1>  -0.3710 
  2 C        1.6990     1.4560     0.6960 C.2   1 <1>   0.6410 
  3 C       -0.7450     1.8450     2.1710 C.3   1 <1>  -0.0100 
  4 N        1.9870     2.4760     1.4080 N.2   1 <1>  -0.6610 
  5 N        2.5340     0.8320    -0.2060 N.pl3 1 <1>  -0.5190 
  6 C        3.2350     2.9960     1.2660 C.2   1 <1>   0.7670 
  7 C        3.8050     1.3360    -0.3530 C.2   1 <1>   0.2090 
  8 C        2.0240    -0.3180    -1.0180 C.3   1 <1>   0.1290 
  9 O        3.5390     3.9010     2.0330 O.2   1 <1>  -0.5700 
 10 C        4.1460     2.4670     0.3210 C.2   1 <1>  -0.1240 
 11 N        4.7260     0.6690    -1.1260 N.am  1 <1>  -0.5390 
 12 C        5.5180     3.1250     0.1210 C.3   1 <1>   0.2020 
 13 C        5.9850     1.0990    -1.3740 C.2   1 <1>   0.5690 
 14 C        5.3970     4.6320    -0.1300 C.ar  1 <1>  -0.1440 
 15 C        6.3420     2.5270    -1.0400 C.3   1 <1>  -0.0990 
 16 O        6.7930     0.3690    -1.8820 O.2   1 <1>  -0.5700 
 17 C        6.1640     5.5490     0.5850 C.ar  1 <1>   0.0820 
 18 C        4.5130     5.1100    -1.0890 C.ar  1 <1>  -0.1500 
 19 O        7.0290     5.1190     1.5280 O.3   1 <1>  -0.3630 
 20 C        6.0610     6.9100     0.3380 C.ar  1 <1>  -0.1500 
 21 C        4.4020     6.4680    -1.3310 C.ar  1 <1>  -0.1500 
 22 C        6.6590     5.3810     2.8640 C.3   1 <1>   0.0400 
 23 C        5.1730     7.3760    -0.6240 C.ar  1 <1>   0.0820 
 24 O        5.0060     8.6880    -0.9270 O.3   1 <1>  -0.3630 
 25 C        5.7110     9.6930    -0.2330 C.3   1 <1>   0.0400 
 26 H       -1.7420     1.4770     2.3330 H     1 <1>   0.0800 
 27 H       -0.7600     2.8510     1.7910 H     1 <1>   0.0800 
 28 H       -0.1600     1.7870     3.0720 H     1 <1>   0.0800 
 29 H        1.8850    -1.1750    -0.3830 H     1 <1>   0.0800 
 30 H        2.6980    -0.5770    -1.8130 H     1 <1>   0.0800 
 31 H        1.0820    -0.0590    -1.4690 H     1 <1>   0.0800 
 32 H        4.5430    -0.2860    -1.4270 H     1 <1>   0.3700 
 33 H        6.0630     2.9440     1.0310 H     1 <1>   0.0800 
 34 H        7.3880     2.5890    -0.8030 H     1 <1>   0.0800 
 35 H        6.1840     3.0980    -1.9360 H     1 <1>   0.0800 
 36 H        3.9020     4.4310    -1.6560 H     1 <1>   0.1500 
 37 H        6.6810     7.5780     0.8990 H     1 <1>   0.1500 
 38 H        3.7150     6.8350    -2.0720 H     1 <1>   0.1500 
 39 H        7.3730     4.9050     3.5120 H     1 <1>   0.0800 
 40 H        5.6770     4.9780     3.0400 H     1 <1>   0.0800 
 41 H        6.6600     6.4430     3.0300 H     1 <1>   0.0800 
 42 H        5.4090    10.6460    -0.6290 H     1 <1>   0.0800 
 43 H        6.7650     9.5500    -0.3890 H     1 <1>   0.0800 
 44 H        5.4620     9.6350     0.8120 H     1 <1>   0.0800 
@<TRIPOS>BOND
  1   1   2  1   
  2   1   3  1   
  3   2   4  2   
  4   2   5  1   
  5   3  26  1   
  6   3  27  1   
  7   3  28  1   
  8   4   6  1   
  9   5   7  1   
 10   5   8  1   
 11   6   9  2   
 12   6  10  1   
 13   7  10  2   
 14   7  11  1   
 15   8  29  1   
 16   8  30  1   
 17   8  31  1   
 18  10  12  1   
 19  11  13  am  
 20  11  32  1   
 21  12  14  1   
 22  12  15  1   
 23  12  33  1   
 24  13  15  1   
 25  13  16  2   
 26  14  17  ar  
 27  14  18  ar  
 28  15  34  1   
 29  15  35  1   
 30  17  19  1   
 31  17  20  ar  
 32  18  21  ar  
 33  18  36  1   
 34  19  22  1   
 35  20  23  ar  
 36  20  37  1   
 37  21  23  ar  
 38  21  38  1   
 39  22  39  1   
 40  22  40  1   
 41  22  41  1   
 42  23  24  1   
 43  24  25  1   
 44  25  42  1   
 45  25  43  1   
 46  25  44  1   
@<TRIPOS>SUBSTRUCTURE
  1 ****  10 GROUP 4 **** **** 0

# MOE 2024.06 (io_trps.svl 2023.06)
