@<TRIPOS>MOLECULE
N-[3-(4-Chloro-phenyl)-[1,2,4]oxadiazol-5-ylmethyl]-N-isopropyl-acetamide
36 37 1 0 0 
SMALL
USER_CHARGES


@<TRIPOS>ATOM
  1 CL      -0.5740     1.5670     0.2270 Cl    1 <1>  -0.1770 
  2 C       -2.2540     1.2420    -0.1070 C.ar  1 <1>   0.1770 
  3 C       -2.7740     1.5530    -1.3480 C.ar  1 <1>  -0.1500 
  4 C       -3.0460     0.6770     0.8730 C.ar  1 <1>  -0.1500 
  5 C       -4.1080     1.2930    -1.6070 C.ar  1 <1>  -0.1500 
  6 C       -4.3790     0.4210     0.6020 C.ar  1 <1>  -0.1500 
  7 C       -4.9450     0.7220    -0.6420 C.ar  1 <1>   0.0540 
  8 C       -6.3460     0.4560    -0.9270 C.2   1 <1>   0.4620 
  9 N       -6.9450     0.7010    -2.0380 N.2   1 <1>  -0.4100 
 10 N       -7.1760    -0.0820    -0.0270 N.2   1 <1>  -0.5650 
 11 O       -8.1820     0.3370    -1.9140 O.3   1 <1>  -0.0190 
 12 C       -8.2590    -0.1180    -0.6910 C.2   1 <1>   0.2980 
 13 C       -9.6000    -0.6320    -0.1880 C.3   1 <1>   0.3200 
 14 N      -10.6800     0.4230    -0.1930 N.am  1 <1>  -0.6600 
 15 C      -11.7000     0.3040    -1.1020 C.2   1 <1>   0.5690 
 16 C      -10.5790     1.5620     0.7720 C.3   1 <1>   0.2200 
 17 O      -11.7850    -0.6410    -1.8470 O.2   1 <1>  -0.5700 
 18 C      -12.7780     1.3580    -1.2200 C.3   1 <1>  -0.1790 
 19 C       -9.6840     2.6660     0.2060 C.3   1 <1>  -0.2400 
 20 C      -10.0950     1.1150     2.1530 C.3   1 <1>  -0.2400 
 21 H       -2.1400     1.9920    -2.0970 H     1 <1>   0.1500 
 22 H       -2.6220     0.4420     1.8320 H     1 <1>   0.1500 
 23 H       -4.5100     1.5370    -2.5760 H     1 <1>   0.1500 
 24 H       -4.9920    -0.0200     1.3690 H     1 <1>   0.1500 
 25 H       -9.4780    -1.0230     0.8040 H     1 <1>   0.0800 
 26 H       -9.8790    -1.4650    -0.8070 H     1 <1>   0.0800 
 27 H      -11.5600     1.9800     0.9150 H     1 <1>   0.0800 
 28 H      -12.3390     2.3270    -1.3630 H     1 <1>   0.0800 
 29 H      -13.3880     1.3570    -0.3360 H     1 <1>   0.0800 
 30 H      -13.4040     1.1410    -2.0660 H     1 <1>   0.0800 
 31 H       -8.6520     2.3720     0.2020 H     1 <1>   0.0800 
 32 H       -9.7710     3.5470     0.8150 H     1 <1>   0.0800 
 33 H       -9.9830     2.9170    -0.7950 H     1 <1>   0.0800 
 34 H       -9.0640     0.8100     2.1290 H     1 <1>   0.0800 
 35 H      -10.7060     0.3090     2.5190 H     1 <1>   0.0800 
 36 H      -10.1760     1.9350     2.8430 H     1 <1>   0.0800 
@<TRIPOS>BOND
  1   1   2  1   
  2   2   3  ar  
  3   2   4  ar  
  4   3   5  ar  
  5   3  21  1   
  6   4   6  ar  
  7   4  22  1   
  8   5   7  ar  
  9   5  23  1   
 10   6   7  ar  
 11   6  24  1   
 12   7   8  1   
 13   8   9  2   
 14   8  10  1   
 15   9  11  1   
 16  10  12  2   
 17  11  12  1   
 18  12  13  1   
 19  13  14  1   
 20  13  25  1   
 21  13  26  1   
 22  14  15  am  
 23  14  16  1   
 24  15  17  2   
 25  15  18  1   
 26  16  19  1   
 27  16  20  1   
 28  16  27  1   
 29  18  28  1   
 30  18  29  1   
 31  18  30  1   
 32  19  31  1   
 33  19  32  1   
 34  19  33  1   
 35  20  34  1   
 36  20  35  1   
 37  20  36  1   
@<TRIPOS>SUBSTRUCTURE
  1 ****  10 GROUP 4 **** **** 0

# MOE 2024.06 (io_trps.svl 2023.06)
