@<TRIPOS>MOLECULE
4-[(Isopropyl-thiophen-2-ylmethyl-amino)-methyl]-7-methyl-chromen-2-one
45 47 1 0 0 
SMALL
USER_CHARGES


@<TRIPOS>ATOM
  1 S       -1.2200     1.7760     0.2450 S.3   1 <1>  -0.0800 
  2 C       -2.7630     1.2740    -0.4330 C.2   1 <1>  -0.1400 
  3 C       -1.5380     3.4530    -0.1540 C.2   1 <1>  -0.1100 
  4 C       -3.4260     2.3370    -0.9270 C.2   1 <1>  -0.1500 
  5 C       -3.1140    -0.1970    -0.3550 C.3   1 <1>   0.5230 
  6 C       -2.7300     3.5770    -0.7640 C.2   1 <1>  -0.1500 
  7 N       -2.9580    -0.6470     1.0640 N.4   1 <1>  -0.9590 
  8 C       -2.3270    -1.9790     1.2250 C.3   1 <1>   0.4230 
  9 C       -4.2030    -0.5340     1.8820 C.3   1 <1>   0.4810 
 10 C       -0.8630    -1.9010     0.8050 C.3   1 <1>  -0.2400 
 11 C       -3.0750    -3.0560     0.4360 C.3   1 <1>  -0.2400 
 12 C       -4.7270     0.8900     1.8670 C.2   1 <1>  -0.1670 
 13 C       -5.8340     1.2470     1.0200 C.ar  1 <1>   0.0280 
 14 C       -4.1550     1.8560     2.6230 C.2   1 <1>  -0.1360 
 15 C       -6.2260     2.5950     0.9910 C.ar  1 <1>   0.0830 
 16 C       -6.5460     0.3550     0.2090 C.ar  1 <1>  -0.1500 
 17 C       -4.5970     3.2120     2.5790 C.2   1 <1>   0.7060 
 18 O       -5.6030     3.5170     1.7590 O.3   1 <1>  -0.2320 
 19 C       -7.2580     3.0260     0.1730 C.ar  1 <1>  -0.1500 
 20 C       -7.5740     0.7910    -0.6020 C.ar  1 <1>  -0.1500 
 21 O       -4.0920     4.0900     3.2430 O.2   1 <1>  -0.5700 
 22 C       -7.9350     2.1300    -0.6300 C.ar  1 <1>  -0.1430 
 23 C       -9.0680     2.5880    -1.5310 C.3   1 <1>  -0.0970 
 24 H       -0.7910     4.1820     0.1120 H     1 <1>   0.1500 
 25 H       -4.3940     2.3240    -1.4030 H     1 <1>   0.1500 
 26 H       -2.4390    -0.7390    -0.9960 H     1 <1>   0.0800 
 27 H       -4.1200    -0.3630    -0.7020 H     1 <1>   0.0800 
 28 H       -3.1600     4.5030    -1.1100 H     1 <1>   0.1500 
 29 H       -2.2980     0.0400     1.4510 H     1 <1>   0.4500 
 30 H       -2.3510    -2.2490     2.2700 H     1 <1>   0.0800 
 31 H       -3.9810    -0.8040     2.9020 H     1 <1>   0.0800 
 32 H       -4.9530    -1.2160     1.5240 H     1 <1>   0.0800 
 33 H       -0.7500    -1.7030    -0.2460 H     1 <1>   0.0800 
 34 H       -0.3830    -2.8430     1.0100 H     1 <1>   0.0800 
 35 H       -0.3440    -1.1460     1.3690 H     1 <1>   0.0800 
 36 H       -3.0060    -2.9000    -0.6260 H     1 <1>   0.0800 
 37 H       -4.1070    -3.1110     0.7270 H     1 <1>   0.0800 
 38 H       -2.6320    -4.0140     0.6460 H     1 <1>   0.0800 
 39 H       -3.3320     1.6820     3.2910 H     1 <1>   0.1500 
 40 H       -6.3200    -0.6940     0.1970 H     1 <1>   0.1500 
 41 H       -7.5250     4.0690     0.1760 H     1 <1>   0.1500 
 42 H       -8.1090     0.0890    -1.2200 H     1 <1>   0.1500 
 43 H       -9.2040     3.6530    -1.4680 H     1 <1>   0.0800 
 44 H       -9.9860     2.1100    -1.2370 H     1 <1>   0.0800 
 45 H       -8.8550     2.3320    -2.5530 H     1 <1>   0.0800 
@<TRIPOS>BOND
  1   1   2  1   
  2   1   3  1   
  3   2   4  2   
  4   2   5  1   
  5   3   6  2   
  6   3  24  1   
  7   4   6  1   
  8   4  25  1   
  9   5   7  1   
 10   5  26  1   
 11   5  27  1   
 12   6  28  1   
 13   7   8  1   
 14   7   9  1   
 15   7  29  1   
 16   8  10  1   
 17   8  11  1   
 18   8  30  1   
 19   9  12  1   
 20   9  31  1   
 21   9  32  1   
 22  10  33  1   
 23  10  34  1   
 24  10  35  1   
 25  11  36  1   
 26  11  37  1   
 27  11  38  1   
 28  12  13  1   
 29  12  14  2   
 30  13  15  ar  
 31  13  16  ar  
 32  14  17  1   
 33  14  39  1   
 34  15  18  1   
 35  15  19  ar  
 36  16  20  ar  
 37  16  40  1   
 38  17  18  1   
 39  17  21  2   
 40  19  22  ar  
 41  19  41  1   
 42  20  22  ar  
 43  20  42  1   
 44  22  23  1   
 45  23  43  1   
 46  23  44  1   
 47  23  45  1   
@<TRIPOS>SUBSTRUCTURE
  1 ****  12 GROUP 4 **** **** 0

# MOE 2024.06 (io_trps.svl 2023.06)
