@<TRIPOS>MOLECULE
4-(4-Benzo[1,3]dioxol-5-ylmethyl-piperazin-1-ylmethyl)-6-methoxy-chromen-2-one
55 59 1 0 0 
SMALL
USER_CHARGES


@<TRIPOS>ATOM
  1 O        0.6930     0.8960     1.6380 O.2   1 <1>  -0.5700 
  2 C       -0.0120     1.8290     1.3190 C.2   1 <1>   0.7060 
  3 O       -1.2990     1.6050     1.0580 O.3   1 <1>  -0.2330 
  4 C        0.4750     3.1620     1.1890 C.2   1 <1>  -0.1360 
  5 C       -2.1530     2.5910     0.6980 C.ar  1 <1>   0.0820 
  6 C       -0.3170     4.1930     0.8080 C.2   1 <1>  -0.1670 
  7 C       -1.7120     3.9200     0.5700 C.ar  1 <1>   0.0280 
  8 C       -3.4750     2.2440     0.4680 C.ar  1 <1>  -0.1500 
  9 C        0.2190     5.6170     0.6450 C.3   1 <1>   0.2480 
 10 C       -2.6680     4.8830     0.2250 C.ar  1 <1>  -0.1500 
 11 C       -4.3900     3.2130     0.1150 C.ar  1 <1>  -0.1500 
 12 N        1.6750     5.6310     0.3940 N.3   1 <1>  -0.8100 
 13 C       -3.9930     4.5360    -0.0050 C.ar  1 <1>   0.0830 
 14 C        2.0030     5.1590    -0.9780 C.3   1 <1>   0.1100 
 15 C        2.2620     6.9730     0.6260 C.3   1 <1>   0.1100 
 16 O       -4.9620     5.4220    -0.3480 O.3   1 <1>  -0.3630 
 17 C        3.5280     5.1460    -1.2490 C.3   1 <1>   0.3430 
 18 C        3.7910     7.0030     0.3690 C.3   1 <1>   0.3430 
 19 C       -4.7030     6.8040    -0.4540 C.3   1 <1>   0.0400 
 20 N        4.2920     5.6590    -0.0620 N.4   1 <1>  -0.9590 
 21 C        5.7680     5.5660    -0.2060 C.3   1 <1>   0.4860 
 22 C        6.1340     4.1170    -0.4610 C.ar  1 <1>  -0.1430 
 23 C        5.9610     3.1710     0.5460 C.ar  1 <1>  -0.1500 
 24 C        6.6290     3.7270    -1.7080 C.ar  1 <1>  -0.1500 
 25 C        6.2730     1.8570     0.2650 C.ar  1 <1>   0.0830 
 26 C        6.9410     2.3980    -1.9670 C.ar  1 <1>  -0.1500 
 27 O        6.1720     0.7960     1.0700 O.3   1 <1>  -0.3620 
 28 C        6.7470     1.4790    -0.9560 C.ar  1 <1>   0.0830 
 29 C        6.6030    -0.3340     0.3130 C.3   1 <1>   0.4000 
 30 O        6.9650     0.1610    -0.9760 O.3   1 <1>  -0.3620 
 31 H        1.5160     3.2780     1.4150 H     1 <1>   0.1500 
 32 H       -3.7800     1.2170     0.5690 H     1 <1>   0.1500 
 33 H       -0.0010     6.1610     1.5490 H     1 <1>   0.0800 
 34 H       -0.2730     6.1110    -0.1740 H     1 <1>   0.0800 
 35 H       -2.3770     5.9080     0.1410 H     1 <1>   0.1500 
 36 H       -5.4190     2.9560    -0.0670 H     1 <1>   0.1500 
 37 H        1.5240     5.7900    -1.7080 H     1 <1>   0.0800 
 38 H        1.6230     4.1620    -1.1230 H     1 <1>   0.0800 
 39 H        2.0790     7.2710     1.6450 H     1 <1>   0.0800 
 40 H        1.7840     7.6980    -0.0120 H     1 <1>   0.0800 
 41 H        3.7400     5.7470    -2.1170 H     1 <1>   0.0800 
 42 H        3.8290     4.1340    -1.4700 H     1 <1>   0.0800 
 43 H        4.2900     7.3080     1.2750 H     1 <1>   0.0800 
 44 H        4.0080     7.7380    -0.3880 H     1 <1>   0.0800 
 45 H       -5.6230     7.2950    -0.7190 H     1 <1>   0.0800 
 46 H       -3.9700     6.9650    -1.2240 H     1 <1>   0.0800 
 47 H       -4.3570     7.1690     0.4970 H     1 <1>   0.0800 
 48 H        4.0010     5.0190     0.6920 H     1 <1>   0.4500 
 49 H        6.2510     5.9010     0.6980 H     1 <1>   0.0800 
 50 H        6.1030     6.1810    -1.0240 H     1 <1>   0.0800 
 51 H        5.5970     3.4190     1.5280 H     1 <1>   0.1500 
 52 H        6.7790     4.4500    -2.4920 H     1 <1>   0.1500 
 53 H        7.3240     2.0770    -2.9200 H     1 <1>   0.1500 
 54 H        5.7930    -1.0350     0.2170 H     1 <1>   0.0800 
 55 H        7.4620    -0.7790     0.7840 H     1 <1>   0.0800 
@<TRIPOS>BOND
  1   1   2  2   
  2   2   3  1   
  3   2   4  1   
  4   3   5  1   
  5   4   6  2   
  6   4  31  1   
  7   5   7  ar  
  8   5   8  ar  
  9   6   7  1   
 10   6   9  1   
 11   7  10  ar  
 12   8  11  ar  
 13   8  32  1   
 14   9  12  1   
 15   9  33  1   
 16   9  34  1   
 17  10  13  ar  
 18  10  35  1   
 19  11  13  ar  
 20  11  36  1   
 21  12  14  1   
 22  12  15  1   
 23  13  16  1   
 24  14  17  1   
 25  14  37  1   
 26  14  38  1   
 27  15  18  1   
 28  15  39  1   
 29  15  40  1   
 30  16  19  1   
 31  17  20  1   
 32  17  41  1   
 33  17  42  1   
 34  18  20  1   
 35  18  43  1   
 36  18  44  1   
 37  19  45  1   
 38  19  46  1   
 39  19  47  1   
 40  20  21  1   
 41  20  48  1   
 42  21  22  1   
 43  21  49  1   
 44  21  50  1   
 45  22  23  ar  
 46  22  24  ar  
 47  23  25  ar  
 48  23  51  1   
 49  24  26  ar  
 50  24  52  1   
 51  25  27  1   
 52  25  28  ar  
 53  26  28  ar  
 54  26  53  1   
 55  27  29  1   
 56  28  30  1   
 57  29  30  1   
 58  29  54  1   
 59  29  55  1   
@<TRIPOS>SUBSTRUCTURE
  1 ****   4 GROUP 4 **** **** 0

# MOE 2024.06 (io_trps.svl 2023.06)
