@<TRIPOS>MOLECULE
1-(5-Oxo-1-p-tolyl-pyrrolidine-3-carbonyl)-piperidine-4-carboxylic acid [1,3,4]t
52 55 1 0 0 
SMALL
USER_CHARGES


@<TRIPOS>ATOM
  1 S       -0.4530    -0.8930     0.1480 S.3   1 <1>  -0.0800 
  2 C       -2.0260    -1.1090     0.8440 C.2   1 <1>   0.4420 
  3 C        0.0970    -0.4330     1.7210 C.2   1 <1>   0.2280 
  4 N       -2.0400    -0.8450     2.1010 N.2   1 <1>  -0.3380 
  5 N       -3.0270    -1.5190    -0.0130 N.am  1 <1>  -0.4940 
  6 N       -0.8230    -0.4600     2.5960 N.2   1 <1>  -0.3380 
  7 C       -4.3390    -1.7850     0.2570 C.2   1 <1>   0.5690 
  8 O       -4.8180    -1.7050     1.3590 O.2   1 <1>  -0.5700 
  9 C       -5.2260    -2.2200    -0.9120 C.3   1 <1>  -0.0190 
 10 C       -6.6730    -1.6980    -0.7740 C.3   1 <1>  -0.1600 
 11 C       -5.2230    -3.7540    -1.0580 C.3   1 <1>  -0.1600 
 12 C       -7.5680    -2.2010    -1.9080 C.3   1 <1>   0.1400 
 13 C       -6.1520    -4.2260    -2.1810 C.3   1 <1>   0.1400 
 14 N       -7.5190    -3.6880    -1.9380 N.am  1 <1>  -0.6600 
 15 C       -8.5720    -4.5360    -1.6870 C.2   1 <1>   0.5690 
 16 O       -8.4560    -5.7330    -1.8080 O.2   1 <1>  -0.5700 
 17 C       -9.9290    -3.9980    -1.2400 C.3   1 <1>  -0.0190 
 18 C      -10.7990    -5.0190    -0.4920 C.3   1 <1>   0.1400 
 19 C      -10.8140    -3.5290    -2.4020 C.3   1 <1>  -0.0990 
 20 N      -12.1870    -4.6190    -0.8060 N.am  1 <1>  -0.4770 
 21 C      -12.2030    -3.7850    -1.8880 C.2   1 <1>   0.5690 
 22 C      -13.2670    -5.0610    -0.0160 C.ar  1 <1>   0.1170 
 23 O      -13.1670    -3.2730    -2.4030 O.2   1 <1>  -0.5700 
 24 C      -14.3630    -4.2400     0.2310 C.ar  1 <1>  -0.1500 
 25 C      -13.2630    -6.3310     0.5540 C.ar  1 <1>  -0.1500 
 26 C      -15.4140    -4.6680     1.0230 C.ar  1 <1>  -0.1500 
 27 C      -14.3110    -6.7620     1.3480 C.ar  1 <1>  -0.1500 
 28 C      -15.3940    -5.9330     1.5880 C.ar  1 <1>  -0.1440 
 29 C      -16.5460    -6.4010     2.4580 C.3   1 <1>  -0.0970 
 30 H        1.1320    -0.1690     1.8400 H     1 <1>   0.1500 
 31 H       -2.7320    -1.6460    -0.9750 H     1 <1>   0.3700 
 32 H       -4.8190    -1.7980    -1.8130 H     1 <1>   0.0800 
 33 H       -6.6700    -0.6220    -0.7700 H     1 <1>   0.0800 
 34 H       -7.0930    -2.0230     0.1630 H     1 <1>   0.0800 
 35 H       -5.5460    -4.2050    -0.1340 H     1 <1>   0.0800 
 36 H       -4.2250    -4.1040    -1.2560 H     1 <1>   0.0800 
 37 H       -7.2110    -1.8210    -2.8510 H     1 <1>   0.0800 
 38 H       -8.5690    -1.8370    -1.7700 H     1 <1>   0.0800 
 39 H       -6.1590    -5.3030    -2.2110 H     1 <1>   0.0800 
 40 H       -5.7970    -3.8720    -3.1340 H     1 <1>   0.0800 
 41 H       -9.7740    -3.1830    -0.5580 H     1 <1>   0.0800 
 42 H      -10.6180    -4.9860     0.5690 H     1 <1>   0.0800 
 43 H      -10.6420    -6.0200    -0.8570 H     1 <1>   0.0800 
 44 H      -10.6570    -4.1280    -3.2800 H     1 <1>   0.0800 
 45 H      -10.6750    -2.4890    -2.6320 H     1 <1>   0.0800 
 46 H      -14.3960    -3.2560    -0.1990 H     1 <1>   0.1500 
 47 H      -12.4400    -6.9970     0.3740 H     1 <1>   0.1500 
 48 H      -16.2470    -4.0110     1.1960 H     1 <1>   0.1500 
 49 H      -14.2820    -7.7480     1.7770 H     1 <1>   0.1500 
 50 H      -16.3720    -6.1120     3.4780 H     1 <1>   0.0800 
 51 H      -16.6440    -7.4710     2.4100 H     1 <1>   0.0800 
 52 H      -17.4700    -5.9620     2.1250 H     1 <1>   0.0800 
@<TRIPOS>BOND
  1   1   2  1   
  2   1   3  1   
  3   2   4  2   
  4   2   5  1   
  5   3   6  2   
  6   3  30  1   
  7   4   6  1   
  8   5   7  am  
  9   5  31  1   
 10   7   8  2   
 11   7   9  1   
 12   9  10  1   
 13   9  11  1   
 14   9  32  1   
 15  10  12  1   
 16  10  33  1   
 17  10  34  1   
 18  11  13  1   
 19  11  35  1   
 20  11  36  1   
 21  12  14  1   
 22  12  37  1   
 23  12  38  1   
 24  13  14  1   
 25  13  39  1   
 26  13  40  1   
 27  14  15  am  
 28  15  16  2   
 29  15  17  1   
 30  17  18  1   
 31  17  19  1   
 32  17  41  1   
 33  18  20  1   
 34  18  42  1   
 35  18  43  1   
 36  19  21  1   
 37  19  44  1   
 38  19  45  1   
 39  20  21  am  
 40  20  22  1   
 41  21  23  2   
 42  22  24  ar  
 43  22  25  ar  
 44  24  26  ar  
 45  24  46  1   
 46  25  27  ar  
 47  25  47  1   
 48  26  28  ar  
 49  26  48  1   
 50  27  28  ar  
 51  27  49  1   
 52  28  29  1   
 53  29  50  1   
 54  29  51  1   
 55  29  52  1   
@<TRIPOS>SUBSTRUCTURE
  1 ****  15 GROUP 4 **** **** 0

# MOE 2024.06 (io_trps.svl 2023.06)
