@<TRIPOS>MOLECULE
2-Prop-2-ynylsulfanyl-5-(3,4,5-trimethoxy-phenyl)-5,8-dihydro-3H,6H-pyrido[2,3-d
47 49 1 0 0 
SMALL
USER_CHARGES


@<TRIPOS>ATOM
  1 S        0.0250     0.3130     0.0810 S.3   1 <1>  -0.3710 
  2 C        1.5430     1.2000    -0.1120 C.2   1 <1>   0.6410 
  3 C       -1.2500     1.4470    -0.6280 C.3   1 <1>   0.2700 
  4 N        2.5900     0.6380     0.5350 N.pl3 1 <1>  -0.5500 
  5 N        1.5850     2.2650    -0.8140 N.2   1 <1>  -0.6610 
  6 C       -1.5800     2.4670     0.4090 C.1   1 <1>  -0.2000 
  7 C        3.7990     1.2540     0.5240 C.2   1 <1>   0.2090 
  8 C        2.7990     2.8870    -0.9000 C.2   1 <1>   0.7670 
  9 C       -1.8450     3.2810     1.2340 C.1   1 <1>  -0.1770 
 10 N        4.8530     0.6570     1.1650 N.am  1 <1>  -0.5390 
 11 C        3.9160     2.4280    -0.1520 C.2   1 <1>  -0.1240 
 12 O        2.8750     3.8300    -1.6740 O.2   1 <1>  -0.5700 
 13 C        6.0760     1.2270     1.2840 C.2   1 <1>   0.5690 
 14 C        5.2480     3.1920    -0.1380 C.3   1 <1>   0.2020 
 15 O        7.0180     0.5920     1.6720 O.2   1 <1>  -0.5700 
 16 C        6.2190     2.6970     0.9560 C.3   1 <1>  -0.0990 
 17 C        5.0780     4.6990     0.0630 C.ar  1 <1>  -0.1430 
 18 C        5.8830     5.5830    -0.6400 C.ar  1 <1>  -0.1500 
 19 C        4.1380     5.2070     0.9490 C.ar  1 <1>  -0.1500 
 20 C        5.7650     6.9530    -0.4710 C.ar  1 <1>   0.0830 
 21 C        3.9730     6.5780     1.1060 C.ar  1 <1>   0.0830 
 22 O        6.6350     7.7130    -1.1920 O.3   1 <1>  -0.3630 
 23 C        4.7870     7.4600     0.3930 C.ar  1 <1>   0.0830 
 24 O        3.0220     7.0850     1.9410 O.3   1 <1>  -0.3630 
 25 C        7.2290     8.8460    -0.5940 C.3   1 <1>   0.0400 
 26 O        4.6000     8.8020     0.5320 O.3   1 <1>  -0.3630 
 27 C        1.8060     6.3910     2.1180 C.3   1 <1>   0.0400 
 28 C        3.5650     9.3390    -0.2570 C.3   1 <1>   0.0400 
 29 H       -2.1100     0.8480    -0.8670 H     1 <1>   0.0800 
 30 H       -0.8520     1.8940    -1.5220 H     1 <1>   0.0800 
 31 H        2.4100    -0.2230     1.0500 H     1 <1>   0.4000 
 32 H       -2.0920     4.0180     1.9790 H     1 <1>   0.1770 
 33 H        4.8030    -0.3100     1.4840 H     1 <1>   0.3700 
 34 H        5.7070     3.0220    -1.0970 H     1 <1>   0.0800 
 35 H        7.2320     2.9000     0.6590 H     1 <1>   0.0800 
 36 H        6.0370     3.2340     1.8690 H     1 <1>   0.0800 
 37 H        6.6230     5.2220    -1.3310 H     1 <1>   0.1500 
 38 H        3.5300     4.5310     1.5180 H     1 <1>   0.1500 
 39 H        8.1480     9.0550    -1.1100 H     1 <1>   0.0800 
 40 H        7.4260     8.6360     0.4430 H     1 <1>   0.0800 
 41 H        6.5600     9.6820    -0.6910 H     1 <1>   0.0800 
 42 H        1.1030     7.0630     2.5760 H     1 <1>   0.0800 
 43 H        1.9740     5.5470     2.7630 H     1 <1>   0.0800 
 44 H        1.4380     6.0750     1.1570 H     1 <1>   0.0800 
 45 H        3.5260    10.3990    -0.0860 H     1 <1>   0.0800 
 46 H        2.6340     8.8830     0.0300 H     1 <1>   0.0800 
 47 H        3.7780     9.1350    -1.2920 H     1 <1>   0.0800 
@<TRIPOS>BOND
  1   1   2  1   
  2   1   3  1   
  3   2   4  1   
  4   2   5  2   
  5   3   6  1   
  6   3  29  1   
  7   3  30  1   
  8   4   7  1   
  9   4  31  1   
 10   5   8  1   
 11   6   9  3   
 12   7  10  1   
 13   7  11  2   
 14   8  11  1   
 15   8  12  2   
 16   9  32  1   
 17  10  13  am  
 18  10  33  1   
 19  11  14  1   
 20  13  15  2   
 21  13  16  1   
 22  14  16  1   
 23  14  17  1   
 24  14  34  1   
 25  16  35  1   
 26  16  36  1   
 27  17  18  ar  
 28  17  19  ar  
 29  18  20  ar  
 30  18  37  1   
 31  19  21  ar  
 32  19  38  1   
 33  20  22  1   
 34  20  23  ar  
 35  21  23  ar  
 36  21  24  1   
 37  22  25  1   
 38  23  26  1   
 39  24  27  1   
 40  25  39  1   
 41  25  40  1   
 42  25  41  1   
 43  26  28  1   
 44  27  42  1   
 45  27  43  1   
 46  27  44  1   
 47  28  45  1   
 48  28  46  1   
 49  28  47  1   
@<TRIPOS>SUBSTRUCTURE
  1 ****  19 GROUP 4 **** **** 0

# MOE 2024.06 (io_trps.svl 2023.06)
