@<TRIPOS>MOLECULE
N-Cyclohexyl-N-[3-(4-methoxy-phenyl)-[1,2,4]oxadiazol-5-ylmethyl]-acetamide
47 49 1 0 0 
SMALL
USER_CHARGES


@<TRIPOS>ATOM
  1 O        0.5650     0.8450    -1.6900 O.2   1 <1>  -0.5700 
  2 C        0.6250     1.9890    -1.3090 C.2   1 <1>   0.5690 
  3 N        1.5810     2.3850    -0.4040 N.am  1 <1>  -0.6600 
  4 C       -0.4260     2.9150    -1.8770 C.3   1 <1>  -0.1790 
  5 C        1.8490     3.7500     0.1540 C.3   1 <1>   0.2200 
  6 C        2.5540     1.3530     0.0990 C.3   1 <1>   0.3200 
  7 C        0.6280     4.3870     0.8340 C.3   1 <1>  -0.1600 
  8 C        2.4900     4.6860    -0.8830 C.3   1 <1>  -0.1600 
  9 C        3.9770     1.6420    -0.3540 C.2   1 <1>   0.2980 
 10 C        1.0170     5.7220     1.4850 C.3   1 <1>  -0.1600 
 11 C        2.8610     6.0290    -0.2380 C.3   1 <1>  -0.1600 
 12 O        4.2780     1.4820    -1.6150 O.3   1 <1>  -0.0190 
 13 N        4.9270     2.0480     0.3870 N.2   1 <1>  -0.5650 
 14 C        1.6520     6.6720     0.4580 C.3   1 <1>  -0.1600 
 15 N        5.5280     1.8210    -1.6860 N.2   1 <1>  -0.4100 
 16 C        5.9160     2.1570    -0.5070 C.2   1 <1>   0.4620 
 17 C        7.2490     2.6120    -0.1500 C.ar  1 <1>   0.0540 
 18 C        8.2650     2.6990    -1.1060 C.ar  1 <1>  -0.1500 
 19 C        7.5750     2.9820     1.1570 C.ar  1 <1>  -0.1500 
 20 C        9.5380     3.1330    -0.7810 C.ar  1 <1>  -0.1500 
 21 C        8.8440     3.4160     1.4900 C.ar  1 <1>  -0.1500 
 22 C        9.8360     3.4960     0.5280 C.ar  1 <1>   0.0820 
 23 O       11.0530     3.9310     0.9350 O.3   1 <1>  -0.3620 
 24 C       12.1330     4.0410     0.0350 C.3   1 <1>   0.0400 
 25 H       -0.0200     3.8680    -2.1400 H     1 <1>   0.0800 
 26 H       -1.2200     3.0360    -1.1650 H     1 <1>   0.0800 
 27 H       -0.8400     2.4770    -2.7670 H     1 <1>   0.0800 
 28 H        2.5810     3.6380     0.9370 H     1 <1>   0.0800 
 29 H        2.2890     0.3640    -0.2270 H     1 <1>   0.0800 
 30 H        2.5270     1.3480     1.1740 H     1 <1>   0.0800 
 31 H        0.2450     3.7190     1.5850 H     1 <1>   0.0800 
 32 H       -0.1470     4.5880     0.1220 H     1 <1>   0.0800 
 33 H        1.8190     4.8730    -1.6970 H     1 <1>   0.0800 
 34 H        3.3800     4.2340    -1.2810 H     1 <1>   0.0800 
 35 H        1.7160     5.5440     2.2840 H     1 <1>   0.0800 
 36 H        0.1430     6.1850     1.9100 H     1 <1>   0.0800 
 37 H        3.2420     6.6970    -0.9910 H     1 <1>   0.0800 
 38 H        3.6440     5.8720     0.4850 H     1 <1>   0.0800 
 39 H        1.9610     7.5790     0.9500 H     1 <1>   0.0800 
 40 H        0.9160     6.9380    -0.2830 H     1 <1>   0.0800 
 41 H        8.0520     2.4230    -2.1240 H     1 <1>   0.1500 
 42 H        6.8240     2.9290     1.9250 H     1 <1>   0.1500 
 43 H       10.2800     3.1810    -1.5550 H     1 <1>   0.1500 
 44 H        9.0760     3.6970     2.5020 H     1 <1>   0.1500 
 45 H       12.9870     4.4000     0.5810 H     1 <1>   0.0800 
 46 H       11.8730     4.7410    -0.7390 H     1 <1>   0.0800 
 47 H       12.3440     3.0700    -0.3770 H     1 <1>   0.0800 
@<TRIPOS>BOND
  1   1   2  2   
  2   2   3  am  
  3   2   4  1   
  4   3   5  1   
  5   3   6  1   
  6   4  25  1   
  7   4  26  1   
  8   4  27  1   
  9   5   7  1   
 10   5   8  1   
 11   5  28  1   
 12   6   9  1   
 13   6  29  1   
 14   6  30  1   
 15   7  10  1   
 16   7  31  1   
 17   7  32  1   
 18   8  11  1   
 19   8  33  1   
 20   8  34  1   
 21   9  12  1   
 22   9  13  2   
 23  10  14  1   
 24  10  35  1   
 25  10  36  1   
 26  11  14  1   
 27  11  37  1   
 28  11  38  1   
 29  12  15  1   
 30  13  16  1   
 31  14  39  1   
 32  14  40  1   
 33  15  16  2   
 34  16  17  1   
 35  17  18  ar  
 36  17  19  ar  
 37  18  20  ar  
 38  18  41  1   
 39  19  21  ar  
 40  19  42  1   
 41  20  22  ar  
 42  20  43  1   
 43  21  22  ar  
 44  21  44  1   
 45  22  23  1   
 46  23  24  1   
 47  24  45  1   
 48  24  46  1   
 49  24  47  1   
@<TRIPOS>SUBSTRUCTURE
  1 ****  13 GROUP 4 **** **** 0

# MOE 2024.06 (io_trps.svl 2023.06)
