@<TRIPOS>MOLECULE
5-Benzo[1,3]dioxol-5-yl-2-ethylsulfanyl-1-methyl-5,8-dihydro-1H,6H-pyrido[2,3-d]
42 45 1 0 0 
SMALL
USER_CHARGES


@<TRIPOS>ATOM
  1 S        0.2820     0.7560    -1.3330 S.3   1 <1>  -0.3710 
  2 C        1.6170     1.5620    -0.4560 C.2   1 <1>   0.6410 
  3 C       -1.1850     1.8670    -1.1500 C.3   1 <1>   0.0700 
  4 N        1.3630     2.6930     0.0810 N.2   1 <1>  -0.6610 
  5 N        2.8250     0.8980    -0.4150 N.pl3 1 <1>  -0.5190 
  6 C       -1.8570     1.5570     0.1870 C.3   1 <1>  -0.2400 
  7 C        2.3740     3.2960     0.7580 C.2   1 <1>   0.7670 
  8 C        3.8540     1.4850     0.2840 C.2   1 <1>   0.2090 
  9 C        2.9950    -0.3850    -1.1670 C.3   1 <1>   0.1290 
 10 O        2.0930     4.3230     1.3640 O.2   1 <1>  -0.5700 
 11 C        3.6670     2.7240     0.8120 C.2   1 <1>  -0.1240 
 12 N        5.0270     0.7980     0.4930 N.am  1 <1>  -0.5390 
 13 C        4.8090     3.4710     1.5110 C.3   1 <1>   0.2020 
 14 C        6.1100     1.2950     1.1330 C.2   1 <1>   0.5690 
 15 C        4.9580     4.8990     0.9840 C.ar  1 <1>  -0.1440 
 16 C        6.1860     2.7820     1.3830 C.3   1 <1>  -0.0990 
 17 O        7.0100     0.5740     1.4690 O.2   1 <1>  -0.5700 
 18 C        5.0420     5.1350    -0.3870 C.ar  1 <1>  -0.1500 
 19 C        5.0140     5.9730     1.8740 C.ar  1 <1>  -0.1500 
 20 C        5.1820     6.4370    -0.8210 C.ar  1 <1>   0.0820 
 21 C        5.1550     7.2780     1.4180 C.ar  1 <1>  -0.1500 
 22 O        5.2820     6.8850    -2.0770 O.3   1 <1>  -0.3630 
 23 C        5.2380     7.4800     0.0550 C.ar  1 <1>   0.0820 
 24 C        5.3900     8.3050    -1.9960 C.3   1 <1>   0.4000 
 25 O        5.3750     8.6330    -0.6080 O.3   1 <1>  -0.3630 
 26 H       -1.8430     1.6570    -1.9740 H     1 <1>   0.0800 
 27 H       -0.8460     2.8870    -1.2070 H     1 <1>   0.0800 
 28 H       -2.1530     0.5240     0.2240 H     1 <1>   0.0800 
 29 H       -2.7290     2.1730     0.3080 H     1 <1>   0.0800 
 30 H       -1.1800     1.7610     0.9980 H     1 <1>   0.0800 
 31 H        2.6400    -0.2680    -2.1770 H     1 <1>   0.0800 
 32 H        2.4310    -1.1650    -0.6850 H     1 <1>   0.0800 
 33 H        4.0250    -0.6820    -1.2240 H     1 <1>   0.0800 
 34 H        5.0710    -0.2010     0.3060 H     1 <1>   0.3700 
 35 H        4.5540     3.5080     2.5570 H     1 <1>   0.0800 
 36 H        6.7630     2.9640     2.2710 H     1 <1>   0.0800 
 37 H        6.7320     3.1990     0.5570 H     1 <1>   0.0800 
 38 H        4.9990     4.3410    -1.1100 H     1 <1>   0.1500 
 39 H        4.9390     5.8020     2.9340 H     1 <1>   0.1500 
 40 H        5.1950     8.1130     2.0930 H     1 <1>   0.1500 
 41 H        4.5450     8.7580    -2.4820 H     1 <1>   0.0800 
 42 H        6.3200     8.6220    -2.4320 H     1 <1>   0.0800 
@<TRIPOS>BOND
  1   1   2  1   
  2   1   3  1   
  3   2   4  2   
  4   2   5  1   
  5   3   6  1   
  6   3  26  1   
  7   3  27  1   
  8   4   7  1   
  9   5   8  1   
 10   5   9  1   
 11   6  28  1   
 12   6  29  1   
 13   6  30  1   
 14   7  10  2   
 15   7  11  1   
 16   8  11  2   
 17   8  12  1   
 18   9  31  1   
 19   9  32  1   
 20   9  33  1   
 21  11  13  1   
 22  12  14  am  
 23  12  34  1   
 24  13  15  1   
 25  13  16  1   
 26  13  35  1   
 27  14  16  1   
 28  14  17  2   
 29  15  18  ar  
 30  15  19  ar  
 31  16  36  1   
 32  16  37  1   
 33  18  20  ar  
 34  18  38  1   
 35  19  21  ar  
 36  19  39  1   
 37  20  22  1   
 38  20  23  ar  
 39  21  23  ar  
 40  21  40  1   
 41  22  24  1   
 42  23  25  1   
 43  24  25  1   
 44  24  41  1   
 45  24  42  1   
@<TRIPOS>SUBSTRUCTURE
  1 ****  11 GROUP 4 **** **** 0

# MOE 2024.06 (io_trps.svl 2023.06)
