@<TRIPOS>MOLECULE
1-Ethyl-2-isopropyl-1H-benzoimidazol-5-ylamine
33 34 1 0 0 
SMALL
USER_CHARGES


@<TRIPOS>ATOM
  1 N       -0.0200    -0.4330     0.8230 N.pl3 1 <1>  -0.7000 
  2 C        1.3490    -0.2940     0.7550 C.ar  1 <1>   0.3090 
  3 C       -0.3750    -1.4700     0.0800 C.cat 1 <1>   0.6560 
  4 C        1.8060    -1.3030    -0.0740 C.ar  1 <1>   0.3090 
  5 C        2.2250     0.6140     1.3390 C.ar  1 <1>  -0.1090 
  6 N        0.6930    -2.0260    -0.4870 N.pl3 1 <1>  -0.7640 
  7 C       -1.8300    -1.9380    -0.0900 C.3   1 <1>   0.0640 
  8 C        3.1700    -1.4290    -0.3360 C.ar  1 <1>  -0.1090 
  9 C        3.5770     0.4970     1.0790 C.ar  1 <1>   0.1000 
 10 C        0.7600    -3.1880    -1.4030 C.3   1 <1>   0.3540 
 11 C       -2.5020    -1.2340    -1.2800 C.3   1 <1>  -0.2400 
 12 C       -2.6730    -1.7310     1.1810 C.3   1 <1>  -0.2400 
 13 C        4.0400    -0.5300     0.2420 C.ar  1 <1>  -0.1500 
 14 N        4.4840     1.3740     1.6440 N.pl3 1 <1>  -0.9000 
 15 C        1.0740    -4.4410    -0.5930 C.3   1 <1>  -0.2400 
 16 H       -0.6440     0.1650     1.3640 H     1 <1>   0.4500 
 17 H        1.8540     1.3880     1.9840 H     1 <1>   0.1500 
 18 H       -1.8160    -2.9950    -0.2890 H     1 <1>   0.0800 
 19 H        3.5290    -2.2150    -0.9750 H     1 <1>   0.1500 
 20 H        1.5250    -3.0230    -2.1430 H     1 <1>   0.0800 
 21 H       -0.1770    -3.3100    -1.9200 H     1 <1>   0.0800 
 22 H       -2.5560    -0.1720    -1.1140 H     1 <1>   0.0800 
 23 H       -3.5010    -1.6090    -1.4210 H     1 <1>   0.0800 
 24 H       -1.9460    -1.4090    -2.1840 H     1 <1>   0.0800 
 25 H       -2.7960    -0.6850     1.4030 H     1 <1>   0.0800 
 26 H       -2.2080    -2.2140     2.0230 H     1 <1>   0.0800 
 27 H       -3.6520    -2.1610     1.0490 H     1 <1>   0.0800 
 28 H        5.0980    -0.6090     0.0610 H     1 <1>   0.1500 
 29 H        5.4180     1.4250     1.2220 H     1 <1>   0.4000 
 30 H        4.1480     2.3010     1.9270 H     1 <1>   0.4000 
 31 H        2.0220    -4.3410    -0.0950 H     1 <1>   0.0800 
 32 H        1.1250    -5.2920    -1.2490 H     1 <1>   0.0800 
 33 H        0.3060    -4.6220     0.1370 H     1 <1>   0.0800 
@<TRIPOS>BOND
  1   1   2  1   
  2   1   3  ar  
  3   1  16  1   
  4   2   4  ar  
  5   2   5  ar  
  6   3   6  ar  
  7   3   7  1   
  8   4   6  1   
  9   4   8  ar  
 10   5   9  ar  
 11   5  17  1   
 12   6  10  1   
 13   7  11  1   
 14   7  12  1   
 15   7  18  1   
 16   8  13  ar  
 17   8  19  1   
 18   9  13  ar  
 19   9  14  1   
 20  10  15  1   
 21  10  20  1   
 22  10  21  1   
 23  11  22  1   
 24  11  23  1   
 25  11  24  1   
 26  12  25  1   
 27  12  26  1   
 28  12  27  1   
 29  13  28  1   
 30  14  29  1   
 31  14  30  1   
 32  15  31  1   
 33  15  32  1   
 34  15  33  1   
@<TRIPOS>SUBSTRUCTURE
  1 ****   4 GROUP 4 **** **** 0

# MOE 2024.06 (io_trps.svl 2023.06)
