@<TRIPOS>MOLECULE
(1,6-Dimethyl-3,4-dihydro-1H-pyrrolo[1,2-a]pyrazin-2-yl)-(3,4,5-trimethoxy-pheny
49 51 1 0 0 
SMALL
USER_CHARGES


@<TRIPOS>ATOM
  1 O       -0.0680     2.3670    -2.6650 O.2   1 <1>  -0.5700 
  2 C       -0.0310     2.8920    -1.5680 C.2   1 <1>   0.5440 
  3 N       -1.2170     3.2290    -0.9510 N.am  1 <1>  -0.6600 
  4 C        1.2620     3.1590    -0.9720 C.ar  1 <1>   0.0860 
  5 C       -1.2530     4.0550     0.2980 C.3   1 <1>   0.4000 
  6 C       -2.5130     2.7090    -1.5130 C.3   1 <1>   0.1400 
  7 C        2.1460     4.0500    -1.5740 C.ar  1 <1>  -0.1500 
  8 C        1.6660     2.5360     0.2050 C.ar  1 <1>  -0.1500 
  9 C       -2.5690     3.8900     1.0360 C.2   1 <1>  -0.3320 
 10 C       -1.0650     5.5240    -0.0730 C.3   1 <1>  -0.2400 
 11 C       -3.7450     3.5210    -1.1000 C.3   1 <1>   0.0960 
 12 C        3.3810     4.3420    -1.0090 C.ar  1 <1>   0.0830 
 13 C        2.8900     2.8060     0.7880 C.ar  1 <1>   0.0830 
 14 N       -3.7260     3.6940     0.3570 N.pl3 1 <1>   0.0480 
 15 C       -2.8280     3.9090     2.3700 C.2   1 <1>  -0.1500 
 16 O        4.2520     5.2140    -1.5940 O.3   1 <1>  -0.3630 
 17 C        3.7520     3.7340     0.1930 C.ar  1 <1>   0.0830 
 18 O        3.1610     2.1330     1.9390 O.3   1 <1>  -0.3630 
 19 C       -4.7300     3.5950     1.2720 C.2   1 <1>  -0.3320 
 20 C       -4.2050     3.7240     2.5190 C.2   1 <1>  -0.1500 
 21 C        4.1560     5.5260    -2.9670 C.3   1 <1>   0.0400 
 22 O        4.9400     4.0460     0.7720 O.3   1 <1>  -0.3630 
 23 C        4.4350     1.5480     2.1090 C.3   1 <1>   0.0400 
 24 C       -6.1860     3.3710     0.9050 C.3   1 <1>  -0.0600 
 25 C        4.9950     5.2800     1.4490 C.3   1 <1>   0.0400 
 26 H       -0.4630     3.7580     0.9650 H     1 <1>   0.0800 
 27 H       -2.6410     1.6940    -1.1770 H     1 <1>   0.0800 
 28 H       -2.4620     2.6900    -2.5880 H     1 <1>   0.0800 
 29 H        1.8320     4.5080    -2.4930 H     1 <1>   0.1500 
 30 H        1.0130     1.8220     0.6750 H     1 <1>   0.1500 
 31 H       -1.8420     5.8440    -0.7420 H     1 <1>   0.0800 
 32 H       -0.1080     5.6800    -0.5320 H     1 <1>   0.0800 
 33 H       -1.1160     6.1240     0.8170 H     1 <1>   0.0800 
 34 H       -4.6410     3.0070    -1.3920 H     1 <1>   0.0800 
 35 H       -3.7260     4.4880    -1.5680 H     1 <1>   0.0800 
 36 H       -2.1330     4.0410     3.1810 H     1 <1>   0.1500 
 37 H       -4.7240     3.6930     3.4620 H     1 <1>   0.1500 
 38 H        5.0350     6.0800    -3.2450 H     1 <1>   0.0800 
 39 H        3.2800     6.1280    -3.1310 H     1 <1>   0.0800 
 40 H        4.1070     4.6110    -3.5320 H     1 <1>   0.0800 
 41 H        4.3430     0.7420     2.8130 H     1 <1>   0.0800 
 42 H        5.1110     2.2890     2.4930 H     1 <1>   0.0800 
 43 H        4.7830     1.1740     1.1610 H     1 <1>   0.0800 
 44 H       -6.5330     4.1630     0.2660 H     1 <1>   0.0800 
 45 H       -6.7920     3.3580     1.7930 H     1 <1>   0.0800 
 46 H       -6.3010     2.4300     0.3980 H     1 <1>   0.0800 
 47 H        5.9690     5.3770     1.8920 H     1 <1>   0.0800 
 48 H        4.2380     5.2900     2.2130 H     1 <1>   0.0800 
 49 H        4.8310     6.0770     0.7450 H     1 <1>   0.0800 
@<TRIPOS>BOND
  1   1   2  2   
  2   2   3  am  
  3   2   4  1   
  4   3   5  1   
  5   3   6  1   
  6   4   7  ar  
  7   4   8  ar  
  8   5   9  1   
  9   5  10  1   
 10   5  26  1   
 11   6  11  1   
 12   6  27  1   
 13   6  28  1   
 14   7  12  ar  
 15   7  29  1   
 16   8  13  ar  
 17   8  30  1   
 18   9  14  1   
 19   9  15  2   
 20  10  31  1   
 21  10  32  1   
 22  10  33  1   
 23  11  14  1   
 24  11  34  1   
 25  11  35  1   
 26  12  16  1   
 27  12  17  ar  
 28  13  17  ar  
 29  13  18  1   
 30  14  19  1   
 31  15  20  1   
 32  15  36  1   
 33  16  21  1   
 34  17  22  1   
 35  18  23  1   
 36  19  20  2   
 37  19  24  1   
 38  20  37  1   
 39  21  38  1   
 40  21  39  1   
 41  21  40  1   
 42  22  25  1   
 43  23  41  1   
 44  23  42  1   
 45  23  43  1   
 46  24  44  1   
 47  24  45  1   
 48  24  46  1   
 49  25  47  1   
 50  25  48  1   
 51  25  49  1   
@<TRIPOS>SUBSTRUCTURE
  1 ****   4 GROUP 4 **** **** 0

# MOE 2024.06 (io_trps.svl 2023.06)
