@<TRIPOS>MOLECULE
8-Cyclopentyl-1,3,6,7-tetramethyl-1H,8H-imidazo[2,1-f]purine-2,4-dione
45 48 1 0 0 
SMALL
USER_CHARGES


@<TRIPOS>ATOM
  1 O        0.6880     1.0860     0.8580 O.2   1 <1>  -0.5750 
  2 C        1.8750     1.2620     0.6740 C.2   1 <1>   0.6860 
  3 N        2.3900     2.5540     0.6230 N.am  1 <1>  -0.4260 
  4 N        2.7170     0.1690     0.5060 N.am  1 <1>  -0.4420 
  5 C        3.7310     2.7860     0.3400 C.2   1 <1>   0.6990 
  6 C        1.4660     3.7120     0.8350 C.3   1 <1>   0.0510 
  7 C        4.0470     0.4080     0.2270 C.2   1 <1>   0.4200 
  8 C        2.1820    -1.2230     0.5870 C.3   1 <1>   0.0510 
  9 O        4.1630     3.9240     0.2640 O.2   1 <1>  -0.5750 
 10 C        4.5760     1.6530     0.1400 C.2   1 <1>   0.2700 
 11 N        5.0240    -0.5130    -0.0030 N.pl3 1 <1>  -0.7040 
 12 N        5.9410     1.4770    -0.1520 N.pl3 1 <1>  -0.6340 
 13 C        6.1520     0.1690    -0.2260 C.cat 1 <1>   1.0690 
 14 C        7.1540     2.0900    -0.3800 C.2   1 <1>   0.2330 
 15 N        7.4300    -0.1180    -0.4980 N.pl3 1 <1>  -0.5720 
 16 C        8.0680     1.1120    -0.5890 C.2   1 <1>   0.1570 
 17 C        7.2710     3.6010    -0.3610 C.3   1 <1>  -0.1100 
 18 C        8.0810    -1.4510    -0.6270 C.3   1 <1>   0.2400 
 19 C        9.5570     1.2270    -0.8770 C.3   1 <1>  -0.1100 
 20 C        7.1740    -2.4830    -1.3080 C.3   1 <1>  -0.1680 
 21 C        8.3570    -2.0320     0.7570 C.3   1 <1>  -0.1680 
 22 C        6.5610    -3.3590    -0.2030 C.3   1 <1>  -0.1680 
 23 C        7.1160    -2.8430     1.1280 C.3   1 <1>  -0.1680 
 24 H        0.7090     3.4600     1.5580 H     1 <1>   0.0710 
 25 H        0.9870     3.9650    -0.0950 H     1 <1>   0.0710 
 26 H        2.0030     4.5710     1.1980 H     1 <1>   0.0710 
 27 H        1.2890    -1.2500     1.1870 H     1 <1>   0.0710 
 28 H        2.9050    -1.8790     1.0380 H     1 <1>   0.0710 
 29 H        1.9420    -1.5770    -0.4010 H     1 <1>   0.0710 
 30 H        4.9820    -1.5300     0.0050 H     1 <1>   0.4440 
 31 H        6.6290     4.0290    -1.1090 H     1 <1>   0.0710 
 32 H        8.2800     3.9150    -0.5570 H     1 <1>   0.0710 
 33 H        6.9760     3.9810     0.6010 H     1 <1>   0.0710 
 34 H        8.9980    -1.3510    -1.1830 H     1 <1>   0.0710 
 35 H        9.7810     0.8090    -1.8420 H     1 <1>   0.0710 
 36 H       10.1200     0.7000    -0.1280 H     1 <1>   0.0710 
 37 H        9.8720     2.2550    -0.8740 H     1 <1>   0.0710 
 38 H        7.7910    -3.1140    -1.9250 H     1 <1>   0.0710 
 39 H        6.4340    -2.0350    -1.9470 H     1 <1>   0.0710 
 40 H        8.5970    -1.2800     1.4890 H     1 <1>   0.0710 
 41 H        9.1910    -2.7080     0.6790 H     1 <1>   0.0710 
 42 H        6.8840    -4.3770    -0.3460 H     1 <1>   0.0710 
 43 H        5.4860    -3.3520    -0.2190 H     1 <1>   0.0710 
 44 H        6.3990    -2.2130     1.6230 H     1 <1>   0.0710 
 45 H        7.3650    -3.6540     1.7910 H     1 <1>   0.0710 
@<TRIPOS>BOND
  1   1   2  2   
  2   2   3  am  
  3   2   4  am  
  4   3   5  am  
  5   3   6  1   
  6   4   7  1   
  7   4   8  1   
  8   5   9  2   
  9   5  10  1   
 10   6  24  1   
 11   6  25  1   
 12   6  26  1   
 13   7  10  2   
 14   7  11  1   
 15   8  27  1   
 16   8  28  1   
 17   8  29  1   
 18  10  12  1   
 19  11  13  ar  
 20  11  30  1   
 21  12  13  ar  
 22  12  14  1   
 23  13  15  ar  
 24  14  16  2   
 25  14  17  1   
 26  15  16  1   
 27  15  18  1   
 28  16  19  1   
 29  17  31  1   
 30  17  32  1   
 31  17  33  1   
 32  18  20  1   
 33  18  21  1   
 34  18  34  1   
 35  19  35  1   
 36  19  36  1   
 37  19  37  1   
 38  20  22  1   
 39  20  38  1   
 40  20  39  1   
 41  21  23  1   
 42  21  40  1   
 43  21  41  1   
 44  22  23  1   
 45  22  42  1   
 46  22  43  1   
 47  23  44  1   
 48  23  45  1   
@<TRIPOS>SUBSTRUCTURE
  1 ****  13 GROUP 4 **** **** 0

# MOE 2024.06 (io_trps.svl 2023.06)
