@<TRIPOS>MOLECULE
7-[3-(4-Chloro-phenoxy)-2-hydroxy-propyl]-8-(2-hydroxy-propylamino)-3-methyl-3,7
52 54 1 0 0 
SMALL
USER_CHARGES


@<TRIPOS>ATOM
  1 CL      -1.0870    -0.2210     0.4310 Cl    1 <1>  -0.1840 
  2 C       -1.0910    -1.9670     0.4520 C.ar  1 <1>   0.1700 
  3 C       -0.0940    -2.6550    -0.2140 C.ar  1 <1>  -0.1570 
  4 C       -2.0920    -2.6350     1.1330 C.ar  1 <1>  -0.1570 
  5 C       -0.0940    -4.0400    -0.2000 C.ar  1 <1>  -0.1570 
  6 C       -2.0910    -4.0190     1.1450 C.ar  1 <1>  -0.1570 
  7 C       -1.1000    -4.7270     0.4800 C.ar  1 <1>   0.0750 
  8 O       -1.1790    -6.0790     0.5360 O.3   1 <1>  -0.3680 
  9 C       -0.3120    -6.8940    -0.2210 C.3   1 <1>   0.1120 
 10 C       -0.7410    -8.3540    -0.0360 C.3   1 <1>   0.1930 
 11 O        0.0460    -9.1610    -0.8650 O.3   1 <1>  -0.6840 
 12 C       -2.2480    -8.5650    -0.3240 C.3   1 <1>   0.3480 
 13 N       -2.7950    -9.9590    -0.1480 N.pl3 1 <1>  -0.7670 
 14 C       -2.2540   -11.1480     0.1600 C.cat 1 <1>   1.0690 
 15 C       -4.1860   -10.1770    -0.2410 C.2   1 <1>   0.2700 
 16 N       -3.2020   -12.0610     0.2820 N.pl3 1 <1>  -0.7040 
 17 N       -0.9670   -11.4300     0.3180 N.pl3 1 <1>  -0.7180 
 18 C       -5.3240    -9.3590    -0.5460 C.2   1 <1>   0.6990 
 19 C       -4.4000   -11.4850     0.0250 C.2   1 <1>   0.4200 
 20 C       -0.3370   -12.6470     0.9130 C.3   1 <1>   0.1600 
 21 O       -5.2480    -8.1740    -0.8050 O.2   1 <1>  -0.5750 
 22 N       -6.5500    -9.9610    -0.5440 N.am  1 <1>  -0.4950 
 23 N       -5.6490   -12.0860     0.0110 N.am  1 <1>  -0.4420 
 24 C       -0.3590   -13.8820    -0.0140 C.3   1 <1>   0.1930 
 25 C       -6.7450   -11.2860    -0.2760 C.2   1 <1>   0.6860 
 26 C       -5.8020   -13.5380     0.3130 C.3   1 <1>   0.0520 
 27 O       -1.6660   -14.2860    -0.2410 O.3   1 <1>  -0.6840 
 28 C        0.3640   -15.0720     0.6090 C.3   1 <1>  -0.2470 
 29 O       -7.8740   -11.7170    -0.2960 O.2   1 <1>  -0.5750 
 30 H        0.6720    -2.1080    -0.7340 H     1 <1>   0.1430 
 31 H       -2.8560    -2.0770     1.6440 H     1 <1>   0.1430 
 32 H        0.6910    -4.5550    -0.7190 H     1 <1>   0.1430 
 33 H       -2.8620    -4.5530     1.6710 H     1 <1>   0.1430 
 34 H        0.6900    -6.7430     0.1410 H     1 <1>   0.0720 
 35 H       -0.3960    -6.5960    -1.2510 H     1 <1>   0.0720 
 36 H       -0.5340    -8.6380     0.9820 H     1 <1>   0.0720 
 37 H        0.1900    -8.7350    -1.7390 H     1 <1>   0.3940 
 38 H       -2.4570    -8.2330    -1.3270 H     1 <1>   0.0720 
 39 H       -2.8030    -7.9170     0.3340 H     1 <1>   0.0720 
 40 H       -2.9480   -13.0550     0.3440 H     1 <1>   0.4450 
 41 H       -0.3130   -10.7050    -0.0140 H     1 <1>   0.4450 
 42 H       -0.8270   -12.8920     1.8400 H     1 <1>   0.0720 
 43 H        0.6880   -12.4140     1.1470 H     1 <1>   0.0720 
 44 H       -7.3730    -9.4000    -0.7540 H     1 <1>   0.3640 
 45 H        0.0910   -13.6410    -0.9630 H     1 <1>   0.0720 
 46 H       -5.1320   -14.1140    -0.3010 H     1 <1>   0.0720 
 47 H       -6.8090   -13.8660     0.1160 H     1 <1>   0.0720 
 48 H       -5.5800   -13.7190     1.3500 H     1 <1>   0.0720 
 49 H       -1.6490   -15.1430    -0.7210 H     1 <1>   0.3940 
 50 H       -0.0960   -15.3570     1.5390 H     1 <1>   0.0720 
 51 H        1.3900   -14.8170     0.8040 H     1 <1>   0.0720 
 52 H        0.3580   -15.9130    -0.0630 H     1 <1>   0.0720 
@<TRIPOS>BOND
  1   1   2  1   
  2   2   3  ar  
  3   2   4  ar  
  4   3   5  ar  
  5   3  30  1   
  6   4   6  ar  
  7   4  31  1   
  8   5   7  ar  
  9   5  32  1   
 10   6   7  ar  
 11   6  33  1   
 12   7   8  1   
 13   8   9  1   
 14   9  10  1   
 15   9  34  1   
 16   9  35  1   
 17  10  11  1   
 18  10  12  1   
 19  10  36  1   
 20  11  37  1   
 21  12  13  1   
 22  12  38  1   
 23  12  39  1   
 24  13  14  ar  
 25  13  15  1   
 26  14  16  ar  
 27  14  17  ar  
 28  15  18  1   
 29  15  19  2   
 30  16  19  1   
 31  16  40  1   
 32  17  20  1   
 33  17  41  1   
 34  18  21  2   
 35  18  22  am  
 36  19  23  1   
 37  20  24  1   
 38  20  42  1   
 39  20  43  1   
 40  22  25  am  
 41  22  44  1   
 42  23  25  am  
 43  23  26  1   
 44  24  27  1   
 45  24  28  1   
 46  24  45  1   
 47  25  29  2   
 48  26  46  1   
 49  26  47  1   
 50  26  48  1   
 51  27  49  1   
 52  28  50  1   
 53  28  51  1   
 54  28  52  1   
@<TRIPOS>SUBSTRUCTURE
  1 ****  12 GROUP 4 **** **** 0

# MOE 2024.06 (io_trps.svl 2023.06)
