@<TRIPOS>MOLECULE
6-Methyl-4-oxo-1,2-dihydro-4H-pyrrolo[3,2,1-ij]quinoline-8-sulfonic acid propyla
39 41 1 0 0 
SMALL
USER_CHARGES


@<TRIPOS>ATOM
  1 S        0.2550     0.3090     0.7890 S.o2  1 <1>   1.4470 
  2 O       -0.9220    -0.5260     0.7310 O.2   1 <1>  -0.6500 
  3 O        0.4940     1.1690     1.9270 O.2   1 <1>  -0.6500 
  4 N        0.1260     1.2890    -0.5680 N.am  1 <1>  -0.9140 
  5 C        1.7400    -0.6740     0.4450 C.ar  1 <1>  -0.0090 
  6 C       -0.5250     2.5740    -0.3580 C.3   1 <1>   0.1960 
  7 C        2.9810    -0.0580     0.3180 C.ar  1 <1>  -0.1500 
  8 C        1.6570    -2.0650     0.2980 C.ar  1 <1>  -0.1500 
  9 C       -2.0340     2.3990    -0.1540 C.3   1 <1>  -0.1600 
 10 C        4.1520    -0.7760     0.0500 C.ar  1 <1>   0.0280 
 11 C        2.7940    -2.7950     0.0330 C.ar  1 <1>  -0.1430 
 12 C       -2.7430     3.7560    -0.0780 C.3   1 <1>  -0.2400 
 13 C        5.4910    -0.2670    -0.1030 C.2   1 <1>  -0.1670 
 14 C        4.0000    -2.1540    -0.0850 C.ar  1 <1>   0.1170 
 15 C        3.0150    -4.2830    -0.1710 C.3   1 <1>  -0.0170 
 16 C        6.5120    -1.1320    -0.3620 C.2   1 <1>  -0.1360 
 17 C        5.7340     1.2290     0.0310 C.3   1 <1>  -0.1020 
 18 N        5.0350    -3.0090    -0.3470 N.am  1 <1>  -0.4770 
 19 C        4.5390    -4.4000    -0.4250 C.3   1 <1>   0.1400 
 20 C        6.3180    -2.5460    -0.4940 C.2   1 <1>   0.6160 
 21 O        7.2330    -3.3190    -0.7250 O.2   1 <1>  -0.5700 
 22 H       -0.4620     0.7500    -1.2000 H     1 <1>   0.4200 
 23 H       -0.3610     3.1830    -1.2320 H     1 <1>   0.0800 
 24 H       -0.0860     3.0880     0.4820 H     1 <1>   0.0800 
 25 H        3.0380     1.0100     0.4320 H     1 <1>   0.1500 
 26 H        0.7050    -2.5590     0.3940 H     1 <1>   0.1500 
 27 H       -2.2200     1.8670     0.7630 H     1 <1>   0.0800 
 28 H       -2.4490     1.8340    -0.9700 H     1 <1>   0.0800 
 29 H       -2.3610     4.3340     0.7460 H     1 <1>   0.0800 
 30 H       -3.7990     3.6090     0.0720 H     1 <1>   0.0800 
 31 H       -2.6020     4.3110    -0.9890 H     1 <1>   0.0800 
 32 H        2.4610    -4.6420    -1.0190 H     1 <1>   0.0800 
 33 H        2.7340    -4.8380     0.7060 H     1 <1>   0.0800 
 34 H        7.5260    -0.8050    -0.4840 H     1 <1>   0.1500 
 35 H        5.4370     1.5650     1.0090 H     1 <1>   0.0800 
 36 H        5.1680     1.7630    -0.7110 H     1 <1>   0.0800 
 37 H        6.7750     1.4610    -0.1050 H     1 <1>   0.0800 
 38 H        4.7460    -4.8030    -1.4010 H     1 <1>   0.0800 
 39 H        5.0200    -4.9980     0.3290 H     1 <1>   0.0800 
@<TRIPOS>BOND
  1   1   2  2   
  2   1   3  2   
  3   1   4  am  
  4   1   5  1   
  5   4   6  1   
  6   4  22  1   
  7   5   7  ar  
  8   5   8  ar  
  9   6   9  1   
 10   6  23  1   
 11   6  24  1   
 12   7  10  ar  
 13   7  25  1   
 14   8  11  ar  
 15   8  26  1   
 16   9  12  1   
 17   9  27  1   
 18   9  28  1   
 19  10  13  1   
 20  10  14  ar  
 21  11  14  ar  
 22  11  15  1   
 23  12  29  1   
 24  12  30  1   
 25  12  31  1   
 26  13  16  2   
 27  13  17  1   
 28  14  18  1   
 29  15  19  1   
 30  15  32  1   
 31  15  33  1   
 32  16  20  1   
 33  16  34  1   
 34  17  35  1   
 35  17  36  1   
 36  17  37  1   
 37  18  19  1   
 38  18  20  am  
 39  19  38  1   
 40  19  39  1   
 41  20  21  2   
@<TRIPOS>SUBSTRUCTURE
  1 ****   7 GROUP 4 **** **** 0

# MOE 2024.06 (io_trps.svl 2023.06)
