@<TRIPOS>MOLECULE
5-Ethyl-2,4-dimethyl-2H-pyrazole-3-carboxylic acid
23 23 1 0 0 
SMALL
USER_CHARGES


@<TRIPOS>ATOM
  1 O        0.4210     0.1570     0.7940 O.co2 1 <1>  -0.9000 
  2 C        1.3640     0.9480     0.6200 C.2   1 <1>   1.0320 
  3 O        1.1550     2.1590     0.8210 O.co2 1 <1>  -0.9000 
  4 C        2.6600     0.4740     0.1940 C.2   1 <1>  -0.3840 
  5 N        3.6700     1.2910    -0.1970 N.pl3 1 <1>   0.3140 
  6 C        3.1610    -0.7900     0.0710 C.2   1 <1>  -0.1810 
  7 N        4.7720     0.6090    -0.5640 N.2   1 <1>  -0.7070 
  8 C        3.6700     2.7590    -0.2650 C.3   1 <1>   0.0160 
  9 C        4.4560    -0.6370    -0.4020 C.2   1 <1>   0.1080 
 10 C        2.4320    -2.0830     0.3890 C.3   1 <1>  -0.0590 
 11 C        5.4320    -1.7560    -0.7130 C.3   1 <1>   0.0210 
 12 C        6.2530    -2.1350     0.5250 C.3   1 <1>  -0.2400 
 13 H        3.5270     3.1520     0.7240 H     1 <1>   0.0800 
 14 H        2.8620     3.0780    -0.8960 H     1 <1>   0.0800 
 15 H        4.6060     3.0990    -0.6650 H     1 <1>   0.0800 
 16 H        1.7980    -2.3480    -0.4370 H     1 <1>   0.0800 
 17 H        1.8150    -1.9460     1.2590 H     1 <1>   0.0800 
 18 H        3.1230    -2.8790     0.5840 H     1 <1>   0.0800 
 19 H        6.0910    -1.4260    -1.4960 H     1 <1>   0.0800 
 20 H        4.8910    -2.6110    -1.0740 H     1 <1>   0.0800 
 21 H        6.8000    -1.2750     0.8690 H     1 <1>   0.0800 
 22 H        6.9460    -2.9210     0.2880 H     1 <1>   0.0800 
 23 H        5.6000    -2.4630     1.3130 H     1 <1>   0.0800 
@<TRIPOS>BOND
  1   1   2  ar  
  2   2   3  ar  
  3   2   4  1   
  4   4   5  1   
  5   4   6  2   
  6   5   7  1   
  7   5   8  1   
  8   6   9  1   
  9   6  10  1   
 10   7   9  2   
 11   8  13  1   
 12   8  14  1   
 13   8  15  1   
 14   9  11  1   
 15  10  16  1   
 16  10  17  1   
 17  10  18  1   
 18  11  12  1   
 19  11  19  1   
 20  11  20  1   
 21  12  21  1   
 22  12  22  1   
 23  12  23  1   
@<TRIPOS>SUBSTRUCTURE
  1 ****   4 GROUP 4 **** **** 0

# MOE 2024.06 (io_trps.svl 2023.06)
