@<TRIPOS>MOLECULE
5-(3,4-Dimethoxy-phenyl)-1-methyl-2-methylsulfanyl-5,8-dihydro-1H,6H-pyrido[2,3-
44 46 1 0 0 
SMALL
USER_CHARGES


@<TRIPOS>ATOM
  1 S        0.5840     0.4870    -2.0600 S.3   1 <1>  -0.3710 
  2 C        1.7290     1.3170    -0.9660 C.2   1 <1>   0.6410 
  3 C       -0.9430     1.5310    -2.0200 C.3   1 <1>  -0.0100 
  4 N        1.3100     2.3810    -0.3960 N.2   1 <1>  -0.6610 
  5 N        2.9720     0.7440    -0.8070 N.pl3 1 <1>  -0.5190 
  6 C        2.1730     3.0080     0.4460 C.2   1 <1>   0.7670 
  7 C        3.8500     1.3550     0.0570 C.2   1 <1>   0.2090 
  8 C        3.3440    -0.4620    -1.6120 C.3   1 <1>   0.1290 
  9 O        1.7290     3.9620     1.0740 O.2   1 <1>  -0.5700 
 10 C        3.4920     2.5340     0.6330 C.2   1 <1>  -0.1240 
 11 N        5.0430     0.7480     0.3740 N.am  1 <1>  -0.5390 
 12 C        4.4670     3.3140     1.5220 C.3   1 <1>   0.2020 
 13 C        5.9870     1.2720     1.1890 C.2   1 <1>   0.5690 
 14 C        4.5690     4.7770     1.0870 C.ar  1 <1>  -0.1440 
 15 C        5.8990     2.7330     1.5600 C.3   1 <1>  -0.0990 
 16 O        6.8970     0.5970     1.5870 O.2   1 <1>  -0.5700 
 17 C        4.8550     5.1020    -0.2330 C.ar  1 <1>  -0.1500 
 18 C        4.3770     5.7990     2.0070 C.ar  1 <1>  -0.1500 
 19 C        4.9550     6.4230    -0.6350 C.ar  1 <1>   0.0820 
 20 C        4.4560     7.1240     1.6110 C.ar  1 <1>  -0.1500 
 21 O        5.2790     6.6540    -1.9320 O.3   1 <1>  -0.3630 
 22 C        4.7250     7.4450     0.2920 C.ar  1 <1>   0.0820 
 23 C        6.4840     7.3470    -2.1710 C.3   1 <1>   0.0400 
 24 O        4.7380     8.7580    -0.0430 O.3   1 <1>  -0.3620 
 25 C        3.6810     9.1870    -0.8720 C.3   1 <1>   0.0400 
 26 H       -1.6710     1.0780    -2.6680 H     1 <1>   0.0800 
 27 H       -0.6800     2.5160    -2.3630 H     1 <1>   0.0800 
 28 H       -1.2960     1.5620    -1.0040 H     1 <1>   0.0800 
 29 H        3.1070    -0.2980    -2.6490 H     1 <1>   0.0800 
 30 H        2.7940    -1.3160    -1.2570 H     1 <1>   0.0800 
 31 H        4.3950    -0.6740    -1.5530 H     1 <1>   0.0800 
 32 H        5.1990    -0.2260     0.1230 H     1 <1>   0.3700 
 33 H        4.0690     3.2730     2.5220 H     1 <1>   0.0800 
 34 H        6.3160     2.8750     2.5400 H     1 <1>   0.0800 
 35 H        6.5310     3.2580     0.8680 H     1 <1>   0.0800 
 36 H        5.0100     4.3340    -0.9690 H     1 <1>   0.1500 
 37 H        4.1520     5.5740     3.0350 H     1 <1>   0.1500 
 38 H        4.2960     7.9140     2.3220 H     1 <1>   0.1500 
 39 H        6.6930     7.3040    -3.2240 H     1 <1>   0.0800 
 40 H        7.2750     6.8730    -1.6170 H     1 <1>   0.0800 
 41 H        6.3750     8.3710    -1.8630 H     1 <1>   0.0800 
 42 H        3.7600    10.2510    -0.9970 H     1 <1>   0.0800 
 43 H        2.7470     8.9380    -0.3990 H     1 <1>   0.0800 
 44 H        3.7560     8.6970    -1.8260 H     1 <1>   0.0800 
@<TRIPOS>BOND
  1   1   2  1   
  2   1   3  1   
  3   2   4  2   
  4   2   5  1   
  5   3  26  1   
  6   3  27  1   
  7   3  28  1   
  8   4   6  1   
  9   5   7  1   
 10   5   8  1   
 11   6   9  2   
 12   6  10  1   
 13   7  10  2   
 14   7  11  1   
 15   8  29  1   
 16   8  30  1   
 17   8  31  1   
 18  10  12  1   
 19  11  13  am  
 20  11  32  1   
 21  12  14  1   
 22  12  15  1   
 23  12  33  1   
 24  13  15  1   
 25  13  16  2   
 26  14  17  ar  
 27  14  18  ar  
 28  15  34  1   
 29  15  35  1   
 30  17  19  ar  
 31  17  36  1   
 32  18  20  ar  
 33  18  37  1   
 34  19  21  1   
 35  19  22  ar  
 36  20  22  ar  
 37  20  38  1   
 38  21  23  1   
 39  22  24  1   
 40  23  39  1   
 41  23  40  1   
 42  23  41  1   
 43  24  25  1   
 44  25  42  1   
 45  25  43  1   
 46  25  44  1   
@<TRIPOS>SUBSTRUCTURE
  1 ****  10 GROUP 4 **** **** 0

# MOE 2024.06 (io_trps.svl 2023.06)
