@<TRIPOS>MOLECULE
N-(2-Methoxy-ethyl)-4-methyl-3-(piperidine-1-carbonyl)-benzenesulfonamide
47 48 1 0 0 
SMALL
USER_CHARGES


@<TRIPOS>ATOM
  1 S       -0.3980    -0.3420    -1.7390 S.o2  1 <1>   1.4470 
  2 O       -1.0170     0.3930    -2.8180 O.2   1 <1>  -0.6500 
  3 O        0.7720    -1.1530    -1.9790 O.2   1 <1>  -0.6500 
  4 N        0.1200     0.7750    -0.6010 N.am  1 <1>  -0.9140 
  5 C       -1.6580    -1.2950    -0.8490 C.ar  1 <1>  -0.0090 
  6 C        0.8140     1.9100    -1.2070 C.3   1 <1>   0.1960 
  7 C       -2.7340    -0.6610    -0.2470 C.ar  1 <1>  -0.1500 
  8 C       -1.5870    -2.6780    -0.7540 C.ar  1 <1>  -0.1500 
  9 C        1.2890     2.8790    -0.1230 C.3   1 <1>   0.1200 
 10 C       -3.7310    -1.3560     0.4340 C.ar  1 <1>   0.0860 
 11 C       -2.5570    -3.3970    -0.0790 C.ar  1 <1>  -0.1500 
 12 O        2.0340     3.8880    -0.7270 O.3   1 <1>  -0.5600 
 13 C       -3.6250    -2.7470     0.5150 C.ar  1 <1>  -0.1430 
 14 C       -4.8410    -0.6300     1.0190 C.2   1 <1>   0.5440 
 15 C        2.4930     4.8590     0.1570 C.3   1 <1>   0.0400 
 16 C       -4.6810    -3.5560     1.2580 C.3   1 <1>  -0.0970 
 17 O       -4.8120    -0.3630     2.2060 O.2   1 <1>  -0.5700 
 18 N       -5.9230    -0.2390     0.2580 N.am  1 <1>  -0.6600 
 19 C       -6.0560    -0.5140    -1.2010 C.3   1 <1>   0.1400 
 20 C       -7.0980     0.4560     0.8550 C.3   1 <1>   0.1400 
 21 C       -7.3100    -1.3560    -1.4550 C.3   1 <1>  -0.1600 
 22 C       -8.3620    -0.3780     0.6200 C.3   1 <1>  -0.1600 
 23 C       -8.5650    -0.6940    -0.8690 C.3   1 <1>  -0.1600 
 24 H        0.8150     0.2540    -0.0710 H     1 <1>   0.4200 
 25 H        0.1460     2.4350    -1.8700 H     1 <1>   0.0800 
 26 H        1.6620     1.5590    -1.7720 H     1 <1>   0.0800 
 27 H       -2.8090     0.4120    -0.3060 H     1 <1>   0.1500 
 28 H       -0.7640    -3.2010    -1.2130 H     1 <1>   0.1500 
 29 H        1.9180     2.3710     0.5870 H     1 <1>   0.0800 
 30 H        0.4420     3.3220     0.3730 H     1 <1>   0.0800 
 31 H       -2.4720    -4.4690    -0.0200 H     1 <1>   0.1500 
 32 H        3.0530     5.5860    -0.4050 H     1 <1>   0.0800 
 33 H        3.1310     4.4000     0.8920 H     1 <1>   0.0800 
 34 H        1.6520     5.3370     0.6290 H     1 <1>   0.0800 
 35 H       -4.7120    -3.2540     2.2900 H     1 <1>   0.0800 
 36 H       -4.4660    -4.6080     1.2180 H     1 <1>   0.0800 
 37 H       -5.6500    -3.3880     0.8230 H     1 <1>   0.0800 
 38 H       -5.1940    -1.0330    -1.5820 H     1 <1>   0.0800 
 39 H       -6.1350     0.4240    -1.7250 H     1 <1>   0.0800 
 40 H       -7.2040     1.4230     0.3940 H     1 <1>   0.0800 
 41 H       -6.9590     0.6070     1.9120 H     1 <1>   0.0800 
 42 H       -7.1720    -2.3270    -1.0130 H     1 <1>   0.0800 
 43 H       -7.4360    -1.4940    -2.5140 H     1 <1>   0.0800 
 44 H       -9.2150     0.1580     0.9970 H     1 <1>   0.0800 
 45 H       -8.2780    -1.2930     1.1800 H     1 <1>   0.0800 
 46 H       -9.4120    -1.3470    -0.9890 H     1 <1>   0.0800 
 47 H       -8.7700     0.2190    -1.4020 H     1 <1>   0.0800 
@<TRIPOS>BOND
  1   1   2  2   
  2   1   3  2   
  3   1   4  am  
  4   1   5  1   
  5   4   6  1   
  6   4  24  1   
  7   5   7  ar  
  8   5   8  ar  
  9   6   9  1   
 10   6  25  1   
 11   6  26  1   
 12   7  10  ar  
 13   7  27  1   
 14   8  11  ar  
 15   8  28  1   
 16   9  12  1   
 17   9  29  1   
 18   9  30  1   
 19  10  13  ar  
 20  10  14  1   
 21  11  13  ar  
 22  11  31  1   
 23  12  15  1   
 24  13  16  1   
 25  14  17  2   
 26  14  18  am  
 27  15  32  1   
 28  15  33  1   
 29  15  34  1   
 30  16  35  1   
 31  16  36  1   
 32  16  37  1   
 33  18  19  1   
 34  18  20  1   
 35  19  21  1   
 36  19  38  1   
 37  19  39  1   
 38  20  22  1   
 39  20  40  1   
 40  20  41  1   
 41  21  23  1   
 42  21  42  1   
 43  21  43  1   
 44  22  23  1   
 45  22  44  1   
 46  22  45  1   
 47  23  46  1   
 48  23  47  1   
@<TRIPOS>SUBSTRUCTURE
  1 ****   7 GROUP 4 **** **** 0

# MOE 2024.06 (io_trps.svl 2023.06)
