@<TRIPOS>MOLECULE
8-sec-Butylamino-7-[3-(4-chloro-phenoxy)-2-hydroxy-propyl]-3-methyl-3,7-dihydro-
54 56 1 0 0 
SMALL
USER_CHARGES


@<TRIPOS>ATOM
  1 CL      -2.2100     2.9260     3.8410 Cl    1 <1>  -0.1840 
  2 C       -3.4310     2.0080     2.9970 C.ar  1 <1>   0.1700 
  3 C       -4.3720     2.6730     2.2320 C.ar  1 <1>  -0.1570 
  4 C       -3.4380     0.6290     3.1050 C.ar  1 <1>  -0.1570 
  5 C       -5.3420     1.9470     1.5630 C.ar  1 <1>  -0.1570 
  6 C       -4.4090    -0.0950     2.4350 C.ar  1 <1>  -0.1570 
  7 C       -5.3650     0.5560     1.6670 C.ar  1 <1>   0.0750 
  8 O       -6.2870    -0.2260     1.0540 O.3   1 <1>  -0.3680 
  9 C       -7.3760     0.3430     0.3570 C.3   1 <1>   0.1130 
 10 C       -8.3010    -0.7930    -0.0850 C.3   1 <1>   0.1930 
 11 O       -9.4650    -0.2470    -0.6270 O.3   1 <1>  -0.6840 
 12 C       -8.6240    -1.7540     1.0850 C.3   1 <1>   0.3480 
 13 N       -9.7160    -2.7180     0.7470 N.pl3 1 <1>  -0.7670 
 14 C       -9.6440    -3.9390     0.2250 C.cat 1 <1>   1.0690 
 15 C      -11.0820    -2.3800     0.8100 C.2   1 <1>   0.2710 
 16 N      -10.8660    -4.4100    -0.0100 N.pl3 1 <1>  -0.7040 
 17 N       -8.5160    -4.5940    -0.0250 N.pl3 1 <1>  -0.7180 
 18 C      -11.8230    -1.2180     1.2060 C.2   1 <1>   0.6990 
 19 C      -11.7640    -3.4510     0.3440 C.2   1 <1>   0.4210 
 20 C       -8.3540    -5.9140    -0.6460 C.3   1 <1>   0.2410 
 21 O      -11.3050    -0.1880     1.6000 O.2   1 <1>  -0.5740 
 22 N      -13.1840    -1.2870     1.1160 N.am  1 <1>  -0.4950 
 23 N      -13.1470    -3.5020     0.2550 N.am  1 <1>  -0.4410 
 24 C       -8.1520    -6.9490     0.4680 C.3   1 <1>  -0.1670 
 25 C       -7.1640    -5.8250    -1.5980 C.3   1 <1>  -0.2460 
 26 C      -13.8600    -2.3790     0.6530 C.2   1 <1>   0.6860 
 27 C      -13.8460    -4.7120    -0.2680 C.3   1 <1>   0.0530 
 28 C       -8.1530    -8.3940    -0.0510 C.3   1 <1>  -0.2460 
 29 O      -15.0660    -2.3290     0.6040 O.2   1 <1>  -0.5740 
 30 H       -4.3400     3.7460     2.1650 H     1 <1>   0.1430 
 31 H       -2.6940     0.1360     3.7040 H     1 <1>   0.1430 
 32 H       -6.0610     2.4820     0.9710 H     1 <1>   0.1430 
 33 H       -4.4270    -1.1660     2.5090 H     1 <1>   0.1430 
 34 H       -6.9930     0.8760    -0.4960 H     1 <1>   0.0730 
 35 H       -7.8880     1.0120     1.0270 H     1 <1>   0.0730 
 36 H       -7.8180    -1.3410    -0.8750 H     1 <1>   0.0730 
 37 H       -9.9160     0.3390     0.0240 H     1 <1>   0.3950 
 38 H       -8.9090    -1.1780     1.9490 H     1 <1>   0.0730 
 39 H       -7.7330    -2.2950     1.3520 H     1 <1>   0.0730 
 40 H      -11.0700    -5.3240    -0.4020 H     1 <1>   0.4450 
 41 H       -7.6320    -4.1590     0.2250 H     1 <1>   0.4450 
 42 H       -9.2360    -6.1660    -1.2140 H     1 <1>   0.0730 
 43 H      -13.7380    -0.4760     1.3860 H     1 <1>   0.3640 
 44 H       -8.9470    -6.8600     1.1870 H     1 <1>   0.0730 
 45 H       -7.2200    -6.7660     0.9760 H     1 <1>   0.0730 
 46 H       -6.2500    -5.6420    -1.0610 H     1 <1>   0.0730 
 47 H       -7.3160    -5.0440    -2.3220 H     1 <1>   0.0730 
 48 H       -7.0520    -6.7480    -2.1380 H     1 <1>   0.0730 
 49 H      -13.6550    -4.8160    -1.3220 H     1 <1>   0.0730 
 50 H      -14.9100    -4.6340    -0.1210 H     1 <1>   0.0730 
 51 H      -13.5000    -5.5900     0.2490 H     1 <1>   0.0730 
 52 H       -9.0610    -8.6090    -0.5870 H     1 <1>   0.0730 
 53 H       -8.0790    -9.0790     0.7760 H     1 <1>   0.0730 
 54 H       -7.3150    -8.5730    -0.7020 H     1 <1>   0.0730 
@<TRIPOS>BOND
  1   1   2  1   
  2   2   3  ar  
  3   2   4  ar  
  4   3   5  ar  
  5   3  30  1   
  6   4   6  ar  
  7   4  31  1   
  8   5   7  ar  
  9   5  32  1   
 10   6   7  ar  
 11   6  33  1   
 12   7   8  1   
 13   8   9  1   
 14   9  10  1   
 15   9  34  1   
 16   9  35  1   
 17  10  11  1   
 18  10  12  1   
 19  10  36  1   
 20  11  37  1   
 21  12  13  1   
 22  12  38  1   
 23  12  39  1   
 24  13  14  ar  
 25  13  15  1   
 26  14  16  ar  
 27  14  17  ar  
 28  15  18  1   
 29  15  19  2   
 30  16  19  1   
 31  16  40  1   
 32  17  20  1   
 33  17  41  1   
 34  18  21  2   
 35  18  22  am  
 36  19  23  1   
 37  20  24  1   
 38  20  25  1   
 39  20  42  1   
 40  22  26  am  
 41  22  43  1   
 42  23  26  am  
 43  23  27  1   
 44  24  28  1   
 45  24  44  1   
 46  24  45  1   
 47  25  46  1   
 48  25  47  1   
 49  25  48  1   
 50  26  29  2   
 51  27  49  1   
 52  27  50  1   
 53  27  51  1   
 54  28  52  1   
 55  28  53  1   
 56  28  54  1   
@<TRIPOS>SUBSTRUCTURE
  1 ****  12 GROUP 4 **** **** 0

# MOE 2024.06 (io_trps.svl 2023.06)
