@<TRIPOS>MOLECULE
3-Cyclopentyl-N-[3-(4-methoxy-phenyl)-[1,2,4]oxadiazol-5-ylmethyl]-propionamide
47 49 1 0 0 
SMALL
USER_CHARGES


@<TRIPOS>ATOM
  1 O        0.2470     0.8980     2.5810 O.2   1 <1>  -0.5700 
  2 C        0.4480     1.6320     1.6470 C.2   1 <1>   0.5690 
  3 N        1.6060     1.5960     0.9500 N.am  1 <1>  -0.7300 
  4 C       -0.6200     2.6240     1.2320 C.3   1 <1>  -0.0990 
  5 C        2.7500     0.7070     1.2810 C.3   1 <1>   0.3200 
  6 C       -1.3710     2.1670    -0.0320 C.3   1 <1>  -0.1600 
  7 C        4.0640     1.4720     1.2550 C.2   1 <1>   0.2980 
  8 C       -2.4160     3.1940    -0.4960 C.3   1 <1>  -0.0800 
  9 O        4.3260     2.2960     2.2340 O.3   1 <1>  -0.0190 
 10 N        4.9530     1.3980     0.3520 N.2   1 <1>  -0.5650 
 11 C       -3.5550     3.4200     0.4970 C.3   1 <1>  -0.1600 
 12 C       -3.1360     2.7590    -1.7680 C.3   1 <1>  -0.1600 
 13 N        5.4840     2.7910     1.9280 N.2   1 <1>  -0.4100 
 14 C        5.8610     2.2630     0.8170 C.2   1 <1>   0.4620 
 15 C       -4.7220     3.9540    -0.3380 C.3   1 <1>  -0.1600 
 16 C       -4.4140     3.5960    -1.7960 C.3   1 <1>  -0.1600 
 17 C        7.1060     2.5480     0.1220 C.ar  1 <1>   0.0540 
 18 C        8.0250     3.4680     0.6310 C.ar  1 <1>  -0.1500 
 19 C        7.4380     1.9180    -1.0800 C.ar  1 <1>  -0.1500 
 20 C        9.2120     3.7500    -0.0210 C.ar  1 <1>  -0.1500 
 21 C        8.6220     2.1940    -1.7380 C.ar  1 <1>  -0.1500 
 22 C        9.5190     3.1110    -1.2170 C.ar  1 <1>   0.0830 
 23 O       10.6560     3.3260    -1.9210 O.3   1 <1>  -0.3630 
 24 C       11.6340     4.2390    -1.4770 C.3   1 <1>   0.0400 
 25 H        1.7520     2.2250     0.1590 H     1 <1>   0.3700 
 26 H       -0.1590     3.5790     1.0630 H     1 <1>   0.0800 
 27 H       -1.3110     2.7310     2.0480 H     1 <1>   0.0800 
 28 H        2.7930    -0.0880     0.5580 H     1 <1>   0.0800 
 29 H        2.6150     0.2700     2.2550 H     1 <1>   0.0800 
 30 H       -1.8520     1.2240     0.1680 H     1 <1>   0.0800 
 31 H       -0.6630     2.0100    -0.8270 H     1 <1>   0.0800 
 32 H       -1.9350     4.1400    -0.6880 H     1 <1>   0.0800 
 33 H       -3.2800     4.1060     1.2790 H     1 <1>   0.0800 
 34 H       -3.8430     2.4810     0.9400 H     1 <1>   0.0800 
 35 H       -3.4010     1.7170    -1.7000 H     1 <1>   0.0800 
 36 H       -2.5350     2.9130    -2.6470 H     1 <1>   0.0800 
 37 H       -4.7930     5.0230    -0.2340 H     1 <1>   0.0800 
 38 H       -5.6490     3.5110    -0.0160 H     1 <1>   0.0800 
 39 H       -5.2250     3.0540    -2.2520 H     1 <1>   0.0800 
 40 H       -4.2410     4.4990    -2.3560 H     1 <1>   0.0800 
 41 H        7.8050     3.9730     1.5560 H     1 <1>   0.1500 
 42 H        6.7590     1.2010    -1.5080 H     1 <1>   0.1500 
 43 H        9.8830     4.4660     0.4150 H     1 <1>   0.1500 
 44 H        8.8600     1.7000    -2.6620 H     1 <1>   0.1500 
 45 H       12.4370     4.2410    -2.1920 H     1 <1>   0.0800 
 46 H       11.9990     3.9200    -0.5170 H     1 <1>   0.0800 
 47 H       11.1950     5.2190    -1.4180 H     1 <1>   0.0800 
@<TRIPOS>BOND
  1   1   2  2   
  2   2   3  am  
  3   2   4  1   
  4   3   5  1   
  5   3  25  1   
  6   4   6  1   
  7   4  26  1   
  8   4  27  1   
  9   5   7  1   
 10   5  28  1   
 11   5  29  1   
 12   6   8  1   
 13   6  30  1   
 14   6  31  1   
 15   7   9  1   
 16   7  10  2   
 17   8  11  1   
 18   8  12  1   
 19   8  32  1   
 20   9  13  1   
 21  10  14  1   
 22  11  15  1   
 23  11  33  1   
 24  11  34  1   
 25  12  16  1   
 26  12  35  1   
 27  12  36  1   
 28  13  14  2   
 29  14  17  1   
 30  15  16  1   
 31  15  37  1   
 32  15  38  1   
 33  16  39  1   
 34  16  40  1   
 35  17  18  ar  
 36  17  19  ar  
 37  18  20  ar  
 38  18  41  1   
 39  19  21  ar  
 40  19  42  1   
 41  20  22  ar  
 42  20  43  1   
 43  21  22  ar  
 44  21  44  1   
 45  22  23  1   
 46  23  24  1   
 47  24  45  1   
 48  24  46  1   
 49  24  47  1   
@<TRIPOS>SUBSTRUCTURE
  1 ****   7 GROUP 4 **** **** 0

# MOE 2024.06 (io_trps.svl 2023.06)
