@<TRIPOS>MOLECULE
7-(3-Ethyl-phenoxymethyl)-1,3-dimethyl-6,7-dihydro-1H-oxazolo[2,3-f]purine-2,4-d
46 49 1 0 0 
SMALL
USER_CHARGES


@<TRIPOS>ATOM
  1 O        1.3960    -0.0600     1.0850 O.2   1 <1>  -0.5700 
  2 C        2.2490     0.7200     0.6940 C.2   1 <1>   0.6900 
  3 N        1.9980     2.0890     0.7490 N.am  1 <1>  -0.4200 
  4 N        3.4550     0.2440     0.2060 N.am  1 <1>  -0.4230 
  5 C        2.9630     2.9990     0.3550 C.2   1 <1>   0.7150 
  6 C        0.6840     2.5680     1.2700 C.3   1 <1>   0.0600 
  7 C        4.4220     1.1520    -0.2040 C.2   1 <1>   0.2900 
  8 C        3.7670    -1.2070     0.1130 C.3   1 <1>   0.0600 
  9 O        2.7780     4.2020     0.4310 O.2   1 <1>  -0.5700 
 10 C        4.1800     2.4820    -0.1330 C.2   1 <1>  -0.2370 
 11 N        5.6470     0.8690    -0.6880 N.2   1 <1>  -0.5650 
 12 N        5.3060     3.0660    -0.5990 N.pl3 1 <1>   0.0480 
 13 C        6.1130     2.0610    -0.9010 C.2   1 <1>   0.2490 
 14 C        5.9440     4.3400    -0.8660 C.3   1 <1>   0.0960 
 15 O        7.2990     2.4580    -1.3630 O.3   1 <1>  -0.3430 
 16 C        7.3630     3.8810    -1.2790 C.3   1 <1>   0.2000 
 17 C        8.4240     4.2970    -0.2490 C.3   1 <1>   0.1200 
 18 O        9.7220     3.9970    -0.7230 O.3   1 <1>  -0.3630 
 19 C       10.4520     2.9610    -0.2370 C.ar  1 <1>   0.0820 
 20 C       11.8280     3.0470    -0.3840 C.ar  1 <1>  -0.1500 
 21 C        9.9010     1.8460     0.3860 C.ar  1 <1>  -0.1500 
 22 C       12.6580     2.0450     0.0910 C.ar  1 <1>  -0.1440 
 23 C       10.7260     0.8430     0.8640 C.ar  1 <1>  -0.1500 
 24 C       12.0990     0.9430     0.7190 C.ar  1 <1>  -0.1500 
 25 C       14.1650     2.1530    -0.0740 C.3   1 <1>  -0.0170 
 26 C       14.7900     2.8520     1.1350 C.3   1 <1>  -0.2400 
 27 H       -0.1090     1.9460     0.8920 H     1 <1>   0.0800 
 28 H        0.4930     3.5820     0.9640 H     1 <1>   0.0800 
 29 H        0.6850     2.5170     2.3440 H     1 <1>   0.0800 
 30 H        2.9200    -1.8060     0.3980 H     1 <1>   0.0800 
 31 H        4.5940    -1.4350     0.7610 H     1 <1>   0.0800 
 32 H        4.0410    -1.4480    -0.8990 H     1 <1>   0.0800 
 33 H        5.9410     4.9540     0.0160 H     1 <1>   0.0800 
 34 H        5.4410     4.8400    -1.6730 H     1 <1>   0.0800 
 35 H        7.6190     4.2690    -2.2490 H     1 <1>   0.0800 
 36 H        8.2610     3.8350     0.7080 H     1 <1>   0.0800 
 37 H        8.3920     5.3630    -0.1150 H     1 <1>   0.0800 
 38 H       12.2410     3.9100    -0.8730 H     1 <1>   0.1500 
 39 H        8.8400     1.7320     0.4990 H     1 <1>   0.1500 
 40 H       10.2970    -0.0180     1.3440 H     1 <1>   0.1500 
 41 H       12.7310     0.1580     1.0960 H     1 <1>   0.1500 
 42 H       14.3920     2.7080    -0.9680 H     1 <1>   0.0800 
 43 H       14.5890     1.1700    -0.1840 H     1 <1>   0.0800 
 44 H       14.3830     3.8420     1.2420 H     1 <1>   0.0800 
 45 H       15.8550     2.9260     1.0120 H     1 <1>   0.0800 
 46 H       14.5810     2.2960     2.0320 H     1 <1>   0.0800 
@<TRIPOS>BOND
  1   1   2  2   
  2   2   3  am  
  3   2   4  am  
  4   3   5  am  
  5   3   6  1   
  6   4   7  1   
  7   4   8  1   
  8   5   9  2   
  9   5  10  1   
 10   6  27  1   
 11   6  28  1   
 12   6  29  1   
 13   7  10  2   
 14   7  11  1   
 15   8  30  1   
 16   8  31  1   
 17   8  32  1   
 18  10  12  1   
 19  11  13  2   
 20  12  13  1   
 21  12  14  1   
 22  13  15  1   
 23  14  16  1   
 24  14  33  1   
 25  14  34  1   
 26  15  16  1   
 27  16  17  1   
 28  16  35  1   
 29  17  18  1   
 30  17  36  1   
 31  17  37  1   
 32  18  19  1   
 33  19  20  ar  
 34  19  21  ar  
 35  20  22  ar  
 36  20  38  1   
 37  21  23  ar  
 38  21  39  1   
 39  22  24  ar  
 40  22  25  1   
 41  23  24  ar  
 42  23  40  1   
 43  24  41  1   
 44  25  26  1   
 45  25  42  1   
 46  25  43  1   
 47  26  44  1   
 48  26  45  1   
 49  26  46  1   
@<TRIPOS>SUBSTRUCTURE
  1 ****  13 GROUP 4 **** **** 0

# MOE 2024.06 (io_trps.svl 2023.06)
