@<TRIPOS>MOLECULE
2-[(Z)-sec-Butylimino]-8-methyl-10-oxo-1,10-dihydro-2H-1,9,10a-triaza-anthracene
57 60 1 0 0 
SMALL
USER_CHARGES


@<TRIPOS>ATOM
  1 O        0.0690    -0.1510     0.3980 O.2   1 <1>  -0.5700 
  2 C        0.1050    -1.3410     0.1810 C.2   1 <1>   0.8650 
  3 N       -1.0970    -2.0060    -0.1240 N.pl3 1 <1>  -0.5760 
  4 C        1.3450    -2.0480     0.2290 C.ar  1 <1>   0.0860 
  5 C       -1.0860    -3.3340    -0.4020 C.cat 1 <1>   0.7390 
  6 C       -2.2940    -1.3250    -0.1470 C.2   1 <1>   0.1910 
  7 C        1.2870    -3.4020    -0.0680 C.ar  1 <1>   0.6590 
  8 C        2.5870    -1.5110     0.5450 C.ar  1 <1>  -0.1500 
  9 N        0.0930    -3.9720    -0.3710 N.pl3 1 <1>  -0.6530 
 10 C       -2.2850    -4.0120    -0.7130 C.2   1 <1>  -0.1680 
 11 C       -3.4660    -1.9570    -0.4440 C.2   1 <1>  -0.1500 
 12 N        2.3050    -4.2240    -0.0870 N.ar  1 <1>  -0.6200 
 13 C        3.6950    -2.3430     0.5510 C.ar  1 <1>   0.0860 
 14 C       -3.4710    -3.3240    -0.7340 C.2   1 <1>  -0.1500 
 15 C       -2.2920    -5.5080    -1.0290 C.3   1 <1>  -0.1020 
 16 C        3.4890    -3.7060     0.2230 C.ar  1 <1>   0.4100 
 17 C        5.0060    -1.8360     0.8870 C.2   1 <1>   0.5440 
 18 N        4.5370    -4.5770     0.2100 N.pl3 1 <1>  -0.8690 
 19 O        5.7660    -2.4820     1.5830 O.2   1 <1>  -0.5700 
 20 N        5.4160    -0.6110     0.4400 N.am  1 <1>  -0.7300 
 21 C        4.5330    -6.0240    -0.0480 C.3   1 <1>   0.2890 
 22 C        6.7270     0.0040     0.7290 C.3   1 <1>   0.2200 
 23 C        4.4930    -6.7460     1.3050 C.3   1 <1>  -0.1600 
 24 C        5.7910    -6.3360    -0.8530 C.3   1 <1>  -0.2400 
 25 C        6.5150     1.4660     1.1000 C.3   1 <1>  -0.1600 
 26 C        7.5300     0.0820    -0.5630 C.3   1 <1>  -0.1600 
 27 C        4.3820    -8.2740     1.1840 C.3   1 <1>  -0.2400 
 28 C        6.3780     2.2210    -0.2280 C.3   1 <1>  -0.1600 
 29 C        7.0250     1.3300    -1.2960 C.3   1 <1>  -0.1600 
 30 H       -2.2990    -0.2660     0.0760 H     1 <1>   0.1500 
 31 H        2.6850    -0.4660     0.7960 H     1 <1>   0.1500 
 32 H        0.1510    -4.9710    -0.5710 H     1 <1>   0.4500 
 33 H       -4.3970    -1.4140    -0.4600 H     1 <1>   0.1500 
 34 H       -4.4090    -3.8040    -0.9660 H     1 <1>   0.1500 
 35 H       -1.9220    -6.0750    -0.1930 H     1 <1>   0.0800 
 36 H       -1.6860    -5.7160    -1.8950 H     1 <1>   0.0800 
 37 H       -3.2910    -5.8500    -1.2400 H     1 <1>   0.0800 
 38 H        5.4090    -4.2440     0.6560 H     1 <1>   0.4000 
 39 H        4.8830    -0.0990    -0.2610 H     1 <1>   0.3700 
 40 H        3.6660    -6.2920    -0.6290 H     1 <1>   0.0800 
 41 H        7.2480    -0.5400     1.5020 H     1 <1>   0.0800 
 42 H        3.6390    -6.3900     1.8530 H     1 <1>   0.0800 
 43 H        5.3760    -6.5000     1.8700 H     1 <1>   0.0800 
 44 H        6.6730    -6.1250    -0.2750 H     1 <1>   0.0800 
 45 H        5.8060    -5.7450    -1.7510 H     1 <1>   0.0800 
 46 H        5.8060    -7.3720    -1.1370 H     1 <1>   0.0800 
 47 H        7.3960     1.8160     1.6080 H     1 <1>   0.0800 
 48 H        5.6690     1.6050     1.7500 H     1 <1>   0.0800 
 49 H        7.4430    -0.8150    -1.1520 H     1 <1>   0.0800 
 50 H        8.5660     0.2240    -0.3090 H     1 <1>   0.0800 
 51 H        3.5250    -8.5450     0.5940 H     1 <1>   0.0800 
 52 H        4.2740    -8.7090     2.1620 H     1 <1>   0.0800 
 53 H        5.2640    -8.6890     0.7300 H     1 <1>   0.0800 
 54 H        6.8630     3.1810    -0.1720 H     1 <1>   0.0800 
 55 H        5.3380     2.3740    -0.4610 H     1 <1>   0.0800 
 56 H        6.2900     1.0520    -2.0320 H     1 <1>   0.0800 
 57 H        7.8360     1.8360    -1.7920 H     1 <1>   0.0800 
@<TRIPOS>BOND
  1   1   2  2   
  2   2   3  1   
  3   2   4  1   
  4   3   5  ar  
  5   3   6  1   
  6   4   7  ar  
  7   4   8  ar  
  8   5   9  ar  
  9   5  10  1   
 10   6  11  2   
 11   6  30  1   
 12   7   9  1   
 13   7  12  ar  
 14   8  13  ar  
 15   8  31  1   
 16   9  32  1   
 17  10  14  2   
 18  10  15  1   
 19  11  14  1   
 20  11  33  1   
 21  12  16  ar  
 22  13  16  ar  
 23  13  17  1   
 24  14  34  1   
 25  15  35  1   
 26  15  36  1   
 27  15  37  1   
 28  16  18  1   
 29  17  19  2   
 30  17  20  am  
 31  18  21  1   
 32  18  38  1   
 33  20  22  1   
 34  20  39  1   
 35  21  23  1   
 36  21  24  1   
 37  21  40  1   
 38  22  25  1   
 39  22  26  1   
 40  22  41  1   
 41  23  27  1   
 42  23  42  1   
 43  23  43  1   
 44  24  44  1   
 45  24  45  1   
 46  24  46  1   
 47  25  28  1   
 48  25  47  1   
 49  25  48  1   
 50  26  29  1   
 51  26  49  1   
 52  26  50  1   
 53  27  51  1   
 54  27  52  1   
 55  27  53  1   
 56  28  29  1   
 57  28  54  1   
 58  28  55  1   
 59  29  56  1   
 60  29  57  1   
@<TRIPOS>SUBSTRUCTURE
  1 ****   8 GROUP 4 **** **** 0

# MOE 2024.06 (io_trps.svl 2023.06)
