@<TRIPOS>MOLECULE
2-(1-Methyl-1H-imidazol-2-ylsulfanyl)-N-(3,4,5-trimethoxy-phenyl)-acetamide
42 43 1 0 0 
SMALL
USER_CHARGES


@<TRIPOS>ATOM
  1 S        0.3010    -0.1180    -0.3710 S.3   1 <1>  -0.2860 
  2 C        0.5200     1.4220     0.5260 C.2   1 <1>   0.2420 
  3 C        1.3630    -1.3400     0.5430 C.3   1 <1>   0.1310 
  4 N        1.2700     1.5260     1.5740 N.2   1 <1>  -0.5650 
  5 N       -0.0950     2.5580     0.1310 N.pl3 1 <1>   0.0480 
  6 C        2.8200    -1.2000     0.1350 C.2   1 <1>   0.5690 
  7 C        1.1370     2.8290     1.8970 C.2   1 <1>   0.0770 
  8 C        0.3150     3.4710     1.0340 C.2   1 <1>  -0.3020 
  9 C       -0.9990     2.7610    -1.0150 C.3   1 <1>   0.0160 
 10 O        3.3470    -2.1320    -0.4250 O.2   1 <1>  -0.5700 
 11 N        3.4620    -0.0310     0.4370 N.am  1 <1>  -0.5470 
 12 C        4.7650     0.4350     0.1990 C.ar  1 <1>   0.1170 
 13 C        5.0130     1.7880     0.3740 C.ar  1 <1>  -0.1500 
 14 C        5.8140    -0.3890    -0.1930 C.ar  1 <1>  -0.1500 
 15 C        6.2700     2.3250     0.1620 C.ar  1 <1>   0.0830 
 16 C        7.0900     0.1240    -0.4080 C.ar  1 <1>   0.0830 
 17 O        6.3850     3.6680     0.3530 O.3   1 <1>  -0.3630 
 18 C        7.3250     1.4880    -0.2150 C.ar  1 <1>   0.0830 
 19 O        8.1350    -0.6640    -0.8010 O.3   1 <1>  -0.3630 
 20 C        7.0740     4.4350    -0.6120 C.3   1 <1>   0.0400 
 21 O        8.5820     1.9860    -0.3900 O.3   1 <1>  -0.3630 
 22 C        7.9200    -1.9770    -1.2710 C.3   1 <1>   0.0400 
 23 C        9.4480     1.8000     0.7050 C.3   1 <1>   0.0400 
 24 H        0.9990    -2.3190     0.2920 H     1 <1>   0.0800 
 25 H        1.2360    -1.1620     1.5950 H     1 <1>   0.0800 
 26 H        1.6480     3.2490     2.7500 H     1 <1>   0.1500 
 27 H        0.0090     4.5010     1.0160 H     1 <1>   0.1500 
 28 H       -1.8530     2.1160    -0.9130 H     1 <1>   0.0800 
 29 H       -0.4770     2.5240    -1.9250 H     1 <1>   0.0800 
 30 H       -1.3230     3.7850    -1.0430 H     1 <1>   0.0800 
 31 H        2.8440     0.6650     0.8760 H     1 <1>   0.3700 
 32 H        4.2160     2.4430     0.6760 H     1 <1>   0.1500 
 33 H        5.6240    -1.4340    -0.3190 H     1 <1>   0.1500 
 34 H        6.7160     5.4460    -0.5540 H     1 <1>   0.0800 
 35 H        6.8820     4.0290    -1.5900 H     1 <1>   0.0800 
 36 H        8.1260     4.4090    -0.3920 H     1 <1>   0.0800 
 37 H        8.8570    -2.3580    -1.6350 H     1 <1>   0.0800 
 38 H        7.2000    -1.9500    -2.0700 H     1 <1>   0.0800 
 39 H        7.5700    -2.5870    -0.4570 H     1 <1>   0.0800 
 40 H       10.3940     2.2500     0.4660 H     1 <1>   0.0800 
 41 H        9.5740     0.7460     0.8780 H     1 <1>   0.0800 
 42 H        9.0180     2.2750     1.5700 H     1 <1>   0.0800 
@<TRIPOS>BOND
  1   1   2  1   
  2   1   3  1   
  3   2   4  2   
  4   2   5  1   
  5   3   6  1   
  6   3  24  1   
  7   3  25  1   
  8   4   7  1   
  9   5   8  1   
 10   5   9  1   
 11   6  10  2   
 12   6  11  am  
 13   7   8  2   
 14   7  26  1   
 15   8  27  1   
 16   9  28  1   
 17   9  29  1   
 18   9  30  1   
 19  11  12  1   
 20  11  31  1   
 21  12  13  ar  
 22  12  14  ar  
 23  13  15  ar  
 24  13  32  1   
 25  14  16  ar  
 26  14  33  1   
 27  15  17  1   
 28  15  18  ar  
 29  16  18  ar  
 30  16  19  1   
 31  17  20  1   
 32  18  21  1   
 33  19  22  1   
 34  20  34  1   
 35  20  35  1   
 36  20  36  1   
 37  21  23  1   
 38  22  37  1   
 39  22  38  1   
 40  22  39  1   
 41  23  40  1   
 42  23  41  1   
 43  23  42  1   
@<TRIPOS>SUBSTRUCTURE
  1 ****  12 GROUP 4 **** **** 0

# MOE 2024.06 (io_trps.svl 2023.06)
