@<TRIPOS>MOLECULE
N-Adamantan-1-yl-2-[5-(4-fluoro-phenyl)-4-methyl-4H-[1,2,4]triazol-3-ylsulfanyl]
53 57 1 0 0 
SMALL
USER_CHARGES


@<TRIPOS>ATOM
  1 S        0.2830    -0.3620     0.2130 S.3   1 <1>  -0.2860 
  2 C       -0.5890     1.1960     0.3820 C.2   1 <1>   0.2420 
  3 C        1.6850    -0.1760     1.4230 C.3   1 <1>   0.1310 
  4 N       -0.1950     2.1480     1.1490 N.2   1 <1>  -0.3380 
  5 N       -1.7060     1.4730    -0.2810 N.pl3 1 <1>   0.0480 
  6 C        2.6100    -1.3830     1.4010 C.2   1 <1>   0.5690 
  7 N       -1.0900     3.1240     1.0010 N.2   1 <1>  -0.3380 
  8 C       -1.9950     2.7160     0.1530 C.2   1 <1>   0.1330 
  9 C       -2.4120     0.6380    -1.2770 C.3   1 <1>   0.0160 
 10 O        3.2720    -1.6050     2.3860 O.2   1 <1>  -0.5700 
 11 N        2.6680    -2.1540     0.2810 N.am  1 <1>  -0.7300 
 12 C       -3.1360     3.4900    -0.2710 C.ar  1 <1>   0.0530 
 13 C        3.4730    -3.3590     0.0280 C.3   1 <1>   0.3000 
 14 C       -2.9600     4.7730    -0.7930 C.ar  1 <1>  -0.1500 
 15 C       -4.4370     2.9890    -0.1700 C.ar  1 <1>  -0.1500 
 16 C        3.1550    -3.8370    -1.4020 C.3   1 <1>  -0.1600 
 17 C        3.1090    -4.4790     1.0200 C.3   1 <1>  -0.1600 
 18 C        4.9780    -3.0440     0.1240 C.3   1 <1>  -0.1600 
 19 C       -4.0370     5.5290    -1.2210 C.ar  1 <1>  -0.1500 
 20 C       -5.5260     3.7310    -0.5940 C.ar  1 <1>  -0.1500 
 21 C        3.9680    -5.1030    -1.7360 C.3   1 <1>  -0.0800 
 22 C        3.9260    -5.7470     0.7050 C.3   1 <1>  -0.0800 
 23 C        5.8020    -4.3070    -0.1940 C.3   1 <1>  -0.0800 
 24 C       -5.3040     4.9900    -1.1160 C.ar  1 <1>   0.1900 
 25 C        3.6080    -6.2120    -0.7290 C.3   1 <1>  -0.1600 
 26 C        5.4700    -4.7830    -1.6210 C.3   1 <1>  -0.1600 
 27 C        5.4290    -5.4180     0.8080 C.3   1 <1>  -0.1600 
 28 F       -6.3260     5.6940    -1.5210 F     1 <1>  -0.1900 
 29 H        1.2490    -0.0560     2.3980 H     1 <1>   0.0800 
 30 H        2.2250     0.7120     1.1560 H     1 <1>   0.0800 
 31 H       -1.6980     0.0600    -1.8340 H     1 <1>   0.0800 
 32 H       -2.9600     1.2670    -1.9560 H     1 <1>   0.0800 
 33 H       -3.0900    -0.0230    -0.7690 H     1 <1>   0.0800 
 34 H        2.0320    -1.9200    -0.4820 H     1 <1>   0.3700 
 35 H       -1.9630     5.1750    -0.8570 H     1 <1>   0.1500 
 36 H       -4.5960     2.0130     0.2550 H     1 <1>   0.1500 
 37 H        3.4000    -3.0640    -2.1080 H     1 <1>   0.0800 
 38 H        2.1060    -4.0580    -1.4880 H     1 <1>   0.0800 
 39 H        2.0580    -4.6980     0.9560 H     1 <1>   0.0800 
 40 H        3.3250    -4.1640     2.0250 H     1 <1>   0.0800 
 41 H        5.2210    -2.7090     1.1160 H     1 <1>   0.0800 
 42 H        5.2330    -2.2600    -0.5660 H     1 <1>   0.0800 
 43 H       -3.9010     6.5160    -1.6250 H     1 <1>   0.1500 
 44 H       -6.5280     3.3490    -0.5200 H     1 <1>   0.1500 
 45 H        3.7400    -5.4320    -2.7360 H     1 <1>   0.0800 
 46 H        3.6750    -6.5250     1.4060 H     1 <1>   0.0800 
 47 H        6.8520    -4.0850    -0.1170 H     1 <1>   0.0800 
 48 H        4.1680    -7.1040    -0.9540 H     1 <1>   0.0800 
 49 H        2.5630    -6.4560    -0.8090 H     1 <1>   0.0800 
 50 H        5.7370    -4.0190    -2.3310 H     1 <1>   0.0800 
 51 H        6.0480    -5.6600    -1.8550 H     1 <1>   0.0800 
 52 H        6.0090    -6.3000     0.6060 H     1 <1>   0.0800 
 53 H        5.6620    -5.0970     1.8090 H     1 <1>   0.0800 
@<TRIPOS>BOND
  1   1   2  1   
  2   1   3  1   
  3   2   4  2   
  4   2   5  1   
  5   3   6  1   
  6   3  29  1   
  7   3  30  1   
  8   4   7  1   
  9   5   8  1   
 10   5   9  1   
 11   6  10  2   
 12   6  11  am  
 13   7   8  2   
 14   8  12  1   
 15   9  31  1   
 16   9  32  1   
 17   9  33  1   
 18  11  13  1   
 19  11  34  1   
 20  12  14  ar  
 21  12  15  ar  
 22  13  16  1   
 23  13  17  1   
 24  13  18  1   
 25  14  19  ar  
 26  14  35  1   
 27  15  20  ar  
 28  15  36  1   
 29  16  21  1   
 30  16  37  1   
 31  16  38  1   
 32  17  22  1   
 33  17  39  1   
 34  17  40  1   
 35  18  23  1   
 36  18  41  1   
 37  18  42  1   
 38  19  24  ar  
 39  19  43  1   
 40  20  24  ar  
 41  20  44  1   
 42  21  25  1   
 43  21  26  1   
 44  21  45  1   
 45  22  25  1   
 46  22  27  1   
 47  22  46  1   
 48  23  26  1   
 49  23  27  1   
 50  23  47  1   
 51  24  28  1   
 52  25  48  1   
 53  25  49  1   
 54  26  50  1   
 55  26  51  1   
 56  27  52  1   
 57  27  53  1   
@<TRIPOS>SUBSTRUCTURE
  1 ****   1 GROUP 4 **** **** 0

# MOE 2024.06 (io_trps.svl 2023.06)
