@<TRIPOS>MOLECULE
5-Oxo-1-phenyl-pyrrolidine-3-carboxylic acid [5-(2-ethoxy-ethyl)-[1,3,4]thiadiaz
45 47 1 0 0 
SMALL
USER_CHARGES


@<TRIPOS>ATOM
  1 S       -0.0030    -0.2850    -0.5760 S.3   1 <1>  -0.0800 
  2 C       -1.7150    -0.1120    -0.3690 C.2   1 <1>   0.4420 
  3 C        0.1370     1.4040    -0.2290 C.2   1 <1>   0.1980 
  4 N       -2.0490     1.0910    -0.0770 N.2   1 <1>  -0.3380 
  5 N       -2.4750    -1.2530    -0.5350 N.am  1 <1>  -0.4940 
  6 N       -0.9880     1.9500     0.0010 N.2   1 <1>  -0.3380 
  7 C        1.5260     2.0120    -0.2390 C.3   1 <1>   0.0200 
  8 C       -3.8300    -1.4050    -0.4460 C.2   1 <1>   0.5690 
  9 C        1.4840     3.5050     0.0780 C.3   1 <1>   0.1200 
 10 O       -4.5860    -0.4960    -0.2250 O.2   1 <1>  -0.5700 
 11 C       -4.4020    -2.8000    -0.6610 C.3   1 <1>  -0.0190 
 12 O        2.7880     3.9880     0.0500 O.3   1 <1>  -0.5600 
 13 C       -5.9000    -2.9120    -0.3410 C.3   1 <1>   0.1400 
 14 C       -3.7480    -3.8910     0.2000 C.3   1 <1>  -0.0990 
 15 C        2.8880     5.3450     0.3250 C.3   1 <1>   0.1200 
 16 N       -6.0800    -4.3070     0.1140 N.am  1 <1>  -0.4770 
 17 C       -4.8720    -4.8630     0.4250 C.2   1 <1>   0.5690 
 18 C        4.3640     5.7180     0.2560 C.3   1 <1>  -0.2400 
 19 C       -7.3590    -4.8980     0.1570 C.ar  1 <1>   0.1170 
 20 O       -4.6580    -5.9800     0.8230 O.2   1 <1>  -0.5700 
 21 C       -8.4840    -4.1450     0.4840 C.ar  1 <1>  -0.1500 
 22 C       -7.5390    -6.2470    -0.1370 C.ar  1 <1>  -0.1500 
 23 C       -9.7440    -4.7160     0.5100 C.ar  1 <1>  -0.1500 
 24 C       -8.7960    -6.8230    -0.1110 C.ar  1 <1>  -0.1500 
 25 C       -9.9020    -6.0570     0.2110 C.ar  1 <1>  -0.1500 
 26 H       -1.9380    -2.0860    -0.7530 H     1 <1>   0.3700 
 27 H        1.9620     1.8700    -1.2110 H     1 <1>   0.0800 
 28 H        2.1310     1.5120     0.4940 H     1 <1>   0.0800 
 29 H        1.0710     3.6700     1.0590 H     1 <1>   0.0800 
 30 H        0.9000     4.0310    -0.6580 H     1 <1>   0.0800 
 31 H       -4.2780    -3.0540    -1.6990 H     1 <1>   0.0800 
 32 H       -6.5050    -2.7070    -1.2080 H     1 <1>   0.0800 
 33 H       -6.1790    -2.2500     0.4620 H     1 <1>   0.0800 
 34 H       -3.4360    -3.5100     1.1560 H     1 <1>   0.0800 
 35 H       -2.9260    -4.3700    -0.2990 H     1 <1>   0.0800 
 36 H        2.4940     5.5310     1.3100 H     1 <1>   0.0800 
 37 H        2.3230     5.8930    -0.4100 H     1 <1>   0.0800 
 38 H        4.9200     5.1560     0.9840 H     1 <1>   0.0800 
 39 H        4.4840     6.7650     0.4640 H     1 <1>   0.0800 
 40 H        4.7500     5.5150    -0.7260 H     1 <1>   0.0800 
 41 H       -8.3810    -3.1040     0.7290 H     1 <1>   0.1500 
 42 H       -6.6890    -6.8550    -0.3880 H     1 <1>   0.1500 
 43 H      -10.6010    -4.1180     0.7650 H     1 <1>   0.1500 
 44 H       -8.9120    -7.8680    -0.3400 H     1 <1>   0.1500 
 45 H      -10.8810    -6.5040     0.2310 H     1 <1>   0.1500 
@<TRIPOS>BOND
  1   1   2  1   
  2   1   3  1   
  3   2   4  2   
  4   2   5  1   
  5   3   6  2   
  6   3   7  1   
  7   4   6  1   
  8   5   8  am  
  9   5  26  1   
 10   7   9  1   
 11   7  27  1   
 12   7  28  1   
 13   8  10  2   
 14   8  11  1   
 15   9  12  1   
 16   9  29  1   
 17   9  30  1   
 18  11  13  1   
 19  11  14  1   
 20  11  31  1   
 21  12  15  1   
 22  13  16  1   
 23  13  32  1   
 24  13  33  1   
 25  14  17  1   
 26  14  34  1   
 27  14  35  1   
 28  15  18  1   
 29  15  36  1   
 30  15  37  1   
 31  16  17  am  
 32  16  19  1   
 33  17  20  2   
 34  18  38  1   
 35  18  39  1   
 36  18  40  1   
 37  19  21  ar  
 38  19  22  ar  
 39  21  23  ar  
 40  21  41  1   
 41  22  24  ar  
 42  22  42  1   
 43  23  25  ar  
 44  23  43  1   
 45  24  25  ar  
 46  24  44  1   
 47  25  45  1   
@<TRIPOS>SUBSTRUCTURE
  1 ****   8 GROUP 4 **** **** 0

# MOE 2024.06 (io_trps.svl 2023.06)
