@<TRIPOS>MOLECULE
N-(2,5-Dimethoxy-phenyl)-2-(5-ethyl-4H-[1,2,4]triazol-3-ylsulfanyl)-acetamide
40 41 1 0 0 
SMALL
USER_CHARGES


@<TRIPOS>ATOM
  1 S       -0.3840     1.6380    -0.0820 S.3   1 <1>  -0.2860 
  2 C       -1.6930     0.4930     0.3530 C.2   1 <1>   0.2420 
  3 C        0.3270     2.0810     1.5760 C.3   1 <1>   0.1310 
  4 N       -2.2820     0.4490     1.4950 N.2   1 <1>  -0.3380 
  5 N       -2.1220    -0.4260    -0.4960 N.pl3 1 <1>   0.0330 
  6 C        1.8490     2.0810     1.5450 C.2   1 <1>   0.5690 
  7 N       -3.1590    -0.5590     1.4080 N.2   1 <1>  -0.3380 
  8 C       -3.0450    -1.0680     0.2250 C.2   1 <1>   0.0060 
  9 O        2.4150     3.0880     1.8920 O.2   1 <1>  -0.5700 
 10 N        2.6000     1.0130     1.1510 N.am  1 <1>  -0.5470 
 11 C       -3.8380    -2.2550    -0.2880 C.3   1 <1>   0.0200 
 12 C        2.3240    -0.2590     0.6110 C.ar  1 <1>   0.1170 
 13 C       -4.7290    -1.8680    -1.4740 C.3   1 <1>  -0.2400 
 14 C        3.2110    -0.7850    -0.3360 C.ar  1 <1>   0.0830 
 15 C        1.2240    -1.0190     0.9880 C.ar  1 <1>  -0.1500 
 16 O        4.3070    -0.0280    -0.6520 O.3   1 <1>  -0.3630 
 17 C        2.9640    -2.0270    -0.9120 C.ar  1 <1>  -0.1500 
 18 C        0.9700    -2.2490     0.4060 C.ar  1 <1>   0.0830 
 19 C        5.2180    -0.4370    -1.6500 C.3   1 <1>   0.0400 
 20 C        1.8450    -2.7550    -0.5480 C.ar  1 <1>  -0.1500 
 21 O       -0.1490    -2.9010     0.8100 O.3   1 <1>  -0.3630 
 22 C       -0.2850    -4.2910     0.6140 C.3   1 <1>   0.0400 
 23 H       -0.0290     1.3760     2.3010 H     1 <1>   0.0800 
 24 H       -0.0440     3.0590     1.8190 H     1 <1>   0.0800 
 25 H       -1.7900    -0.5960    -1.4440 H     1 <1>   0.2700 
 26 H        3.5840     1.2690     1.0510 H     1 <1>   0.3700 
 27 H       -4.4540    -2.6310     0.5100 H     1 <1>   0.0800 
 28 H       -3.1590    -3.0370    -0.5760 H     1 <1>   0.0800 
 29 H       -5.4010    -1.0790    -1.1840 H     1 <1>   0.0800 
 30 H       -5.3120    -2.7160    -1.7880 H     1 <1>   0.0800 
 31 H       -4.1350    -1.5320    -2.3040 H     1 <1>   0.0800 
 32 H        0.5470    -0.6710     1.7430 H     1 <1>   0.1500 
 33 H        3.6270    -2.4470    -1.6440 H     1 <1>   0.1500 
 34 H        5.9720     0.3240    -1.7440 H     1 <1>   0.0800 
 35 H        4.6910    -0.5440    -2.5820 H     1 <1>   0.0800 
 36 H        5.6720    -1.3650    -1.3510 H     1 <1>   0.0800 
 37 H        1.6700    -3.7060    -1.0140 H     1 <1>   0.1500 
 38 H       -1.1630    -4.6170     1.1440 H     1 <1>   0.0800 
 39 H        0.5840    -4.7860     1.0100 H     1 <1>   0.0800 
 40 H       -0.3980    -4.4880    -0.4360 H     1 <1>   0.0800 
@<TRIPOS>BOND
  1   1   2  1   
  2   1   3  1   
  3   2   4  2   
  4   2   5  1   
  5   3   6  1   
  6   3  23  1   
  7   3  24  1   
  8   4   7  1   
  9   5   8  1   
 10   5  25  1   
 11   6   9  2   
 12   6  10  am  
 13   7   8  2   
 14   8  11  1   
 15  10  12  1   
 16  10  26  1   
 17  11  13  1   
 18  11  27  1   
 19  11  28  1   
 20  12  14  ar  
 21  12  15  ar  
 22  13  29  1   
 23  13  30  1   
 24  13  31  1   
 25  14  16  1   
 26  14  17  ar  
 27  15  18  ar  
 28  15  32  1   
 29  16  19  1   
 30  17  20  ar  
 31  17  33  1   
 32  18  20  ar  
 33  18  21  1   
 34  19  34  1   
 35  19  35  1   
 36  19  36  1   
 37  20  37  1   
 38  21  22  1   
 39  22  38  1   
 40  22  39  1   
 41  22  40  1   
@<TRIPOS>SUBSTRUCTURE
  1 ****  15 GROUP 4 **** **** 0

# MOE 2024.06 (io_trps.svl 2023.06)
