@<TRIPOS>MOLECULE
4-(2,4-Dimethoxy-phenyl)-2,7-dimethyl-5-oxo-1,4,5,6,7,8-hexahydro-quinoline-3-ca
59 62 1 0 0 
SMALL
USER_CHARGES


@<TRIPOS>ATOM
  1 O        1.3240    -0.3850    -2.3360 O.2   1 <1>  -0.5700 
  2 C        0.9940    -1.3150    -1.6410 C.2   1 <1>   0.4950 
  3 C        1.8600    -2.0100    -0.7470 C.2   1 <1>  -0.1240 
  4 C       -0.4410    -1.8010    -1.7760 C.3   1 <1>  -0.0990 
  5 C        1.4790    -3.1010    -0.0400 C.2   1 <1>  -0.0380 
  6 C        3.2830    -1.4670    -0.5890 C.3   1 <1>   0.3400 
  7 C       -0.9320    -2.5310    -0.5120 C.3   1 <1>  -0.0800 
  8 N        2.3650    -3.7920     0.7470 N.pl3 1 <1>  -0.6000 
  9 C        0.0560    -3.6350    -0.0940 C.3   1 <1>  -0.0220 
 10 C        4.2480    -2.4580     0.0860 C.2   1 <1>  -0.1240 
 11 C        3.2090    -0.1790     0.2470 C.ar  1 <1>  -0.1440 
 12 C       -2.3410    -3.1010    -0.7220 C.3   1 <1>  -0.2400 
 13 C        3.7190    -3.5250     0.7530 C.2   1 <1>  -0.0380 
 14 C        5.6510    -2.1690    -0.0750 C.2   1 <1>   0.6160 
 15 C        3.6670     1.0420    -0.2430 C.ar  1 <1>   0.0820 
 16 C        2.6740    -0.2310     1.5270 C.ar  1 <1>  -0.1500 
 17 C        4.5140    -4.5450     1.5540 C.3   1 <1>  -0.1020 
 18 O        6.4550    -3.0820    -0.1370 O.2   1 <1>  -0.5700 
 19 N        6.1260    -0.8850    -0.1990 N.am  1 <1>  -0.5470 
 20 O        4.2220     1.0450    -1.4820 O.3   1 <1>  -0.3630 
 21 C        3.5730     2.1910     0.5380 C.ar  1 <1>  -0.1500 
 22 C        2.5850     0.9090     2.3030 C.ar  1 <1>  -0.1500 
 23 C        7.3970    -0.3490    -0.1650 C.ar  1 <1>   0.4270 
 24 C        4.6880     2.2240    -2.0980 C.3   1 <1>   0.0400 
 25 C        3.0290     2.1250     1.8150 C.ar  1 <1>   0.0820 
 26 N        7.4490     0.9040    -0.5980 N.ar  1 <1>  -0.6200 
 27 C        8.5200    -1.0340     0.3030 C.ar  1 <1>  -0.1500 
 28 O        2.9040     3.1930     2.6430 O.3   1 <1>  -0.3630 
 29 C        8.6400     1.4800    -0.5820 C.ar  1 <1>   0.1600 
 30 C        9.7520    -0.4220     0.3160 C.ar  1 <1>  -0.1500 
 31 C        3.3500     4.4750     2.2600 C.3   1 <1>   0.0400 
 32 C        9.8040     0.8760    -0.1440 C.ar  1 <1>  -0.1500 
 33 H       -0.4900    -2.4570    -2.6260 H     1 <1>   0.0800 
 34 H       -1.0730    -0.9540    -1.9710 H     1 <1>   0.0800 
 35 H        3.6570    -1.2800    -1.5800 H     1 <1>   0.0800 
 36 H       -0.9760    -1.8090     0.2880 H     1 <1>   0.0800 
 37 H        2.0340    -4.6120     1.2670 H     1 <1>   0.4000 
 38 H       -0.2290    -4.0050     0.8750 H     1 <1>   0.0800 
 39 H        0.0200    -4.4540    -0.7910 H     1 <1>   0.0800 
 40 H       -2.3460    -3.8270    -1.5170 H     1 <1>   0.0800 
 41 H       -3.0280    -2.3120    -0.9760 H     1 <1>   0.0800 
 42 H       -2.6910    -3.5750     0.1780 H     1 <1>   0.0800 
 43 H        2.3230    -1.1670     1.9280 H     1 <1>   0.1500 
 44 H        4.6530    -5.4360     0.9710 H     1 <1>   0.0800 
 45 H        3.9930    -4.7960     2.4600 H     1 <1>   0.0800 
 46 H        5.4780    -4.1650     1.8370 H     1 <1>   0.0800 
 47 H        5.4300    -0.1640    -0.3970 H     1 <1>   0.3700 
 48 H        3.9230     3.1260     0.1570 H     1 <1>   0.1500 
 49 H        2.1690     0.8620     3.2930 H     1 <1>   0.1500 
 50 H        5.0720     1.9620    -3.0670 H     1 <1>   0.0800 
 51 H        5.4740     2.6450    -1.4970 H     1 <1>   0.0800 
 52 H        3.8660     2.9100    -2.2030 H     1 <1>   0.0800 
 53 H        8.4310    -2.0410     0.6610 H     1 <1>   0.1500 
 54 H        8.6920     2.4950    -0.9370 H     1 <1>   0.1500 
 55 H       10.6310    -0.9330     0.6690 H     1 <1>   0.1500 
 56 H        3.1560     5.1520     3.0720 H     1 <1>   0.0800 
 57 H        2.8060     4.7860     1.3860 H     1 <1>   0.0800 
 58 H        4.4070     4.4310     2.0640 H     1 <1>   0.0800 
 59 H       10.7350     1.4130    -0.1630 H     1 <1>   0.1500 
@<TRIPOS>BOND
  1   1   2  2   
  2   2   3  1   
  3   2   4  1   
  4   3   5  2   
  5   3   6  1   
  6   4   7  1   
  7   4  33  1   
  8   4  34  1   
  9   5   8  1   
 10   5   9  1   
 11   6  10  1   
 12   6  11  1   
 13   6  35  1   
 14   7   9  1   
 15   7  12  1   
 16   7  36  1   
 17   8  13  1   
 18   8  37  1   
 19   9  38  1   
 20   9  39  1   
 21  10  13  2   
 22  10  14  1   
 23  11  15  ar  
 24  11  16  ar  
 25  12  40  1   
 26  12  41  1   
 27  12  42  1   
 28  13  17  1   
 29  14  18  2   
 30  14  19  am  
 31  15  20  1   
 32  15  21  ar  
 33  16  22  ar  
 34  16  43  1   
 35  17  44  1   
 36  17  45  1   
 37  17  46  1   
 38  19  23  1   
 39  19  47  1   
 40  20  24  1   
 41  21  25  ar  
 42  21  48  1   
 43  22  25  ar  
 44  22  49  1   
 45  23  26  ar  
 46  23  27  ar  
 47  24  50  1   
 48  24  51  1   
 49  24  52  1   
 50  25  28  1   
 51  26  29  ar  
 52  27  30  ar  
 53  27  53  1   
 54  28  31  1   
 55  29  32  ar  
 56  29  54  1   
 57  30  32  ar  
 58  30  55  1   
 59  31  56  1   
 60  31  57  1   
 61  31  58  1   
 62  32  59  1   
@<TRIPOS>SUBSTRUCTURE
  1 ****  11 GROUP 4 **** **** 0

# MOE 2024.06 (io_trps.svl 2023.06)
