@<TRIPOS>MOLECULE
2-[(Z)-sec-Butylimino]-6-methyl-10-oxo-1,10-dihydro-2H-1,9,10a-triaza-anthracene
47 49 1 0 0 
SMALL
USER_CHARGES


@<TRIPOS>ATOM
  1 O       -0.1340    -0.2510    -0.2500 O.2   1 <1>  -0.5700 
  2 C       -0.0580    -1.4580    -0.2630 C.2   1 <1>   0.8650 
  3 N       -1.2460    -2.2080    -0.3300 N.pl3 1 <1>  -0.5760 
  4 C        1.2140    -2.1050    -0.2030 C.ar  1 <1>   0.0860 
  5 C       -1.1910    -3.5610    -0.3190 C.cat 1 <1>   0.7390 
  6 C       -2.4740    -1.5880    -0.4070 C.2   1 <1>   0.1910 
  7 C        1.1960    -3.4930    -0.1940 C.ar  1 <1>   0.6590 
  8 C        2.4520    -1.4770    -0.1530 C.ar  1 <1>  -0.1500 
  9 N        0.0100    -4.1520    -0.2460 N.pl3 1 <1>  -0.6530 
 10 C       -2.3710    -4.3130    -0.3820 C.2   1 <1>  -0.1800 
 11 C       -3.6410    -2.3020    -0.4700 C.2   1 <1>  -0.1380 
 12 N        2.2480    -4.2690    -0.1380 N.ar  1 <1>  -0.6200 
 13 C        3.5970    -2.2550    -0.0950 C.ar  1 <1>   0.0860 
 14 C       -3.5930    -3.7000    -0.4570 C.2   1 <1>  -0.1500 
 15 C       -4.9970    -1.6200    -0.5530 C.3   1 <1>  -0.1020 
 16 C        3.4290    -3.6620    -0.0970 C.ar  1 <1>   0.4100 
 17 C        4.9050    -1.6440    -0.0390 C.2   1 <1>   0.5440 
 18 N        4.5150    -4.4850    -0.0500 N.pl3 1 <1>  -0.8690 
 19 O        5.8430    -2.1120    -0.6560 O.2   1 <1>  -0.5700 
 20 N        5.1140    -0.5120     0.7040 N.am  1 <1>  -0.7300 
 21 C        4.5730    -5.9540    -0.0940 C.3   1 <1>   0.2890 
 22 C        6.4040     0.2230     0.8010 C.3   1 <1>   0.0600 
 23 C        5.4590    -6.4210     1.0670 C.3   1 <1>  -0.1600 
 24 C        5.1300    -6.3400    -1.4610 C.3   1 <1>  -0.2400 
 25 C        5.5150    -7.9480     1.2210 C.3   1 <1>  -0.2400 
 26 H       -2.5070    -0.5070    -0.4160 H     1 <1>   0.1500 
 27 H        2.5190    -0.4000    -0.1700 H     1 <1>   0.1500 
 28 H        0.1050    -5.1680    -0.2360 H     1 <1>   0.4500 
 29 H       -2.3090    -5.3860    -0.3710 H     1 <1>   0.1500 
 30 H       -4.5080    -4.2700    -0.5060 H     1 <1>   0.1500 
 31 H       -5.5040    -1.9140    -1.4560 H     1 <1>   0.0800 
 32 H       -4.8970    -0.5490    -0.5550 H     1 <1>   0.0800 
 33 H       -5.6050    -1.9010     0.2890 H     1 <1>   0.0800 
 34 H        5.4310    -4.0360    -0.2200 H     1 <1>   0.4000 
 35 H        4.3840    -0.1760     1.3360 H     1 <1>   0.3700 
 36 H        3.5870    -6.3710     0.0240 H     1 <1>   0.0800 
 37 H        7.1080    -0.1470     0.0740 H     1 <1>   0.0800 
 38 H        6.8230     0.0950     1.7840 H     1 <1>   0.0800 
 39 H        6.2420     1.2710     0.6180 H     1 <1>   0.0800 
 40 H        5.0660    -6.0060     1.9790 H     1 <1>   0.0800 
 41 H        6.4570    -6.0420     0.9340 H     1 <1>   0.0800 
 42 H        6.1340    -5.9750    -1.5770 H     1 <1>   0.0800 
 43 H        4.5110    -5.9270    -2.2370 H     1 <1>   0.0800 
 44 H        5.1360    -7.4080    -1.5740 H     1 <1>   0.0800 
 45 H        4.5240    -8.3550     1.3250 H     1 <1>   0.0800 
 46 H        6.0810    -8.2040     2.0990 H     1 <1>   0.0800 
 47 H        5.9920    -8.4030     0.3710 H     1 <1>   0.0800 
@<TRIPOS>BOND
  1   1   2  2   
  2   2   3  1   
  3   2   4  1   
  4   3   5  ar  
  5   3   6  1   
  6   4   7  ar  
  7   4   8  ar  
  8   5   9  ar  
  9   5  10  1   
 10   6  11  2   
 11   6  26  1   
 12   7   9  1   
 13   7  12  ar  
 14   8  13  ar  
 15   8  27  1   
 16   9  28  1   
 17  10  14  2   
 18  10  29  1   
 19  11  14  1   
 20  11  15  1   
 21  12  16  ar  
 22  13  16  ar  
 23  13  17  1   
 24  14  30  1   
 25  15  31  1   
 26  15  32  1   
 27  15  33  1   
 28  16  18  1   
 29  17  19  2   
 30  17  20  am  
 31  18  21  1   
 32  18  34  1   
 33  20  22  1   
 34  20  35  1   
 35  21  23  1   
 36  21  24  1   
 37  21  36  1   
 38  22  37  1   
 39  22  38  1   
 40  22  39  1   
 41  23  25  1   
 42  23  40  1   
 43  23  41  1   
 44  24  42  1   
 45  24  43  1   
 46  24  44  1   
 47  25  45  1   
 48  25  46  1   
 49  25  47  1   
@<TRIPOS>SUBSTRUCTURE
  1 ****   7 GROUP 4 **** **** 0

# MOE 2024.06 (io_trps.svl 2023.06)
