@<TRIPOS>MOLECULE
1-[2-(4-Fluoro-phenyl)-ethyl]-5-oxo-pyrrolidine-3-carboxylic acid (5-methoxymeth
45 47 1 0 0 
SMALL
USER_CHARGES


@<TRIPOS>ATOM
  1 S       -0.3630    -0.1130     0.0730 S.3   1 <1>  -0.0800 
  2 C       -2.0470     0.2840     0.1550 C.2   1 <1>   0.4420 
  3 C       -0.0360     1.4540     0.7330 C.2   1 <1>   0.1980 
  4 N       -2.2470     1.4540     0.6390 N.2   1 <1>  -0.3380 
  5 N       -2.9260    -0.6790    -0.2970 N.am  1 <1>  -0.4940 
  6 N       -1.0960     2.1170     0.9660 N.2   1 <1>  -0.3380 
  7 C        1.4090     1.8580     0.9750 C.3   1 <1>   0.3000 
  8 C       -4.2920    -0.6620    -0.3190 C.2   1 <1>   0.5690 
  9 O        2.1900     1.5760    -0.1520 O.3   1 <1>  -0.5600 
 10 O       -4.9490     0.2600     0.0890 O.2   1 <1>  -0.5700 
 11 C       -5.0060    -1.8700    -0.9120 C.3   1 <1>  -0.0190 
 12 C        3.5190     1.9700    -0.0380 C.3   1 <1>   0.0400 
 13 C       -6.5250    -1.8800    -0.6580 C.3   1 <1>   0.1400 
 14 C       -4.5010    -3.2300    -0.3860 C.3   1 <1>  -0.0990 
 15 N       -6.8430    -3.3130    -0.5380 N.am  1 <1>  -0.6600 
 16 C       -5.7410    -4.0770    -0.3830 C.2   1 <1>   0.5690 
 17 C       -8.2400    -3.8090    -0.5340 C.3   1 <1>   0.1400 
 18 O       -5.7180    -5.2750    -0.2480 O.2   1 <1>  -0.5700 
 19 C       -8.8330    -3.7030     0.8710 C.3   1 <1>  -0.0170 
 20 C      -10.2640    -4.2180     0.8770 C.ar  1 <1>  -0.1440 
 21 C      -10.5040    -5.5820     0.9890 C.ar  1 <1>  -0.1500 
 22 C      -11.3280    -3.3320     0.7650 C.ar  1 <1>  -0.1500 
 23 C      -11.8020    -6.0650     0.9910 C.ar  1 <1>  -0.1500 
 24 C      -12.6310    -3.8020     0.7650 C.ar  1 <1>  -0.1500 
 25 C      -12.8420    -5.1630     0.8780 C.ar  1 <1>   0.1900 
 26 F      -14.0690    -5.6120     0.8780 F     1 <1>  -0.1900 
 27 H       -2.4770    -1.5100    -0.6700 H     1 <1>   0.3700 
 28 H        1.8040     1.3110     1.8120 H     1 <1>   0.0800 
 29 H        1.4570     2.9140     1.1740 H     1 <1>   0.0800 
 30 H       -4.8660    -1.8410    -1.9770 H     1 <1>   0.0800 
 31 H        4.0260     1.7040    -0.9490 H     1 <1>   0.0800 
 32 H        3.9750     1.4580     0.7920 H     1 <1>   0.0800 
 33 H        3.5650     3.0370     0.1010 H     1 <1>   0.0800 
 34 H       -7.0630    -1.4260    -1.4730 H     1 <1>   0.0800 
 35 H       -6.7780    -1.3860     0.2660 H     1 <1>   0.0800 
 36 H       -4.1420    -3.1590     0.6240 H     1 <1>   0.0800 
 37 H       -3.7510    -3.6620    -1.0220 H     1 <1>   0.0800 
 38 H       -8.2500    -4.8390    -0.8480 H     1 <1>   0.0800 
 39 H       -8.8290    -3.2390    -1.2310 H     1 <1>   0.0800 
 40 H       -8.8140    -2.6790     1.1990 H     1 <1>   0.0800 
 41 H       -8.2400    -4.2880     1.5520 H     1 <1>   0.0800 
 42 H       -9.6810    -6.2710     1.0750 H     1 <1>   0.1500 
 43 H      -11.1480    -2.2740     0.6780 H     1 <1>   0.1500 
 44 H      -12.0060    -7.1160     1.0770 H     1 <1>   0.1500 
 45 H      -13.4670    -3.1320     0.6800 H     1 <1>   0.1500 
@<TRIPOS>BOND
  1   1   2  1   
  2   1   3  1   
  3   2   4  2   
  4   2   5  1   
  5   3   6  2   
  6   3   7  1   
  7   4   6  1   
  8   5   8  am  
  9   5  27  1   
 10   7   9  1   
 11   7  28  1   
 12   7  29  1   
 13   8  10  2   
 14   8  11  1   
 15   9  12  1   
 16  11  13  1   
 17  11  14  1   
 18  11  30  1   
 19  12  31  1   
 20  12  32  1   
 21  12  33  1   
 22  13  15  1   
 23  13  34  1   
 24  13  35  1   
 25  14  16  1   
 26  14  36  1   
 27  14  37  1   
 28  15  16  am  
 29  15  17  1   
 30  16  18  2   
 31  17  19  1   
 32  17  38  1   
 33  17  39  1   
 34  19  20  1   
 35  19  40  1   
 36  19  41  1   
 37  20  21  ar  
 38  20  22  ar  
 39  21  23  ar  
 40  21  42  1   
 41  22  24  ar  
 42  22  43  1   
 43  23  25  ar  
 44  23  44  1   
 45  24  25  ar  
 46  24  45  1   
 47  25  26  1   
@<TRIPOS>SUBSTRUCTURE
  1 ****  13 GROUP 4 **** **** 0

# MOE 2024.06 (io_trps.svl 2023.06)
