@<TRIPOS>MOLECULE
1-Cyclohexyl-3-ethyl-1-(3-p-tolyl-[1,2,4]oxadiazol-5-ylmethyl)-urea
51 53 1 0 0 
SMALL
USER_CHARGES


@<TRIPOS>ATOM
  1 O        0.0510     0.6070    -0.0190 O.2   1 <1>  -0.5700 
  2 C        0.3160     1.7860     0.1260 C.2   1 <1>   0.6900 
  3 N        1.4340     2.3240    -0.4590 N.am  1 <1>  -0.6600 
  4 N       -0.5010     2.5570     0.8800 N.am  1 <1>  -0.7300 
  5 C        1.8110     3.7690    -0.5220 C.3   1 <1>   0.2200 
  6 C        2.4270     1.4050    -1.1060 C.3   1 <1>   0.3200 
  7 C       -1.7370     2.1170     1.5480 C.3   1 <1>   0.1400 
  8 C        2.2030     4.3150     0.8610 C.3   1 <1>  -0.1600 
  9 C        0.7320     4.6210    -1.2080 C.3   1 <1>  -0.1600 
 10 C        3.7840     1.4710    -0.4200 C.2   1 <1>   0.2980 
 11 C       -2.7800     3.2190     1.4060 C.3   1 <1>  -0.2400 
 12 C        2.6260     5.7880     0.7650 C.3   1 <1>  -0.1600 
 13 C        1.1700     6.0910    -1.2900 C.3   1 <1>  -0.1600 
 14 O        3.9010     0.9780     0.7850 O.3   1 <1>  -0.0190 
 15 N        4.8410     1.9830    -0.9050 N.2   1 <1>  -0.5650 
 16 C        1.5380     6.6390     0.0960 C.3   1 <1>  -0.1600 
 17 N        5.1390     1.2000     1.0970 N.2   1 <1>  -0.4100 
 18 C        5.7000     1.7930     0.1030 C.2   1 <1>   0.4620 
 19 C        7.0870     2.2250     0.0450 C.ar  1 <1>   0.0540 
 20 C        7.9570     2.0120     1.1160 C.ar  1 <1>  -0.1500 
 21 C        7.6100     2.8700    -1.0770 C.ar  1 <1>  -0.1500 
 22 C        9.2770     2.4210     1.0700 C.ar  1 <1>  -0.1500 
 23 C        8.9300     3.2810    -1.1280 C.ar  1 <1>  -0.1500 
 24 C        9.7740     3.0570    -0.0540 C.ar  1 <1>  -0.1440 
 25 C       11.2220     3.5080    -0.1070 C.3   1 <1>  -0.0970 
 26 H       -0.2270     3.5260     1.0160 H     1 <1>   0.3700 
 27 H        2.6900     3.8540    -1.1400 H     1 <1>   0.0800 
 28 H        2.5420     1.6910    -2.1360 H     1 <1>   0.0800 
 29 H        2.0920     0.3840    -1.0900 H     1 <1>   0.0800 
 30 H       -1.5310     1.9260     2.5880 H     1 <1>   0.0800 
 31 H       -2.0950     1.2060     1.0960 H     1 <1>   0.0800 
 32 H        3.0240     3.7410     1.2540 H     1 <1>   0.0800 
 33 H        1.3840     4.2410     1.5490 H     1 <1>   0.0800 
 34 H       -0.1950     4.5770    -0.6700 H     1 <1>   0.0800 
 35 H        0.5620     4.2450    -2.2020 H     1 <1>   0.0800 
 36 H       -2.4410     4.1230     1.8770 H     1 <1>   0.0800 
 37 H       -3.6950     2.9100     1.8780 H     1 <1>   0.0800 
 38 H       -2.9810     3.4050     0.3660 H     1 <1>   0.0800 
 39 H        3.5370     5.8600     0.1940 H     1 <1>   0.0800 
 40 H        2.8290     6.1690     1.7510 H     1 <1>   0.0800 
 41 H        0.3740     6.6810    -1.7120 H     1 <1>   0.0800 
 42 H        2.0220     6.1750    -1.9430 H     1 <1>   0.0800 
 43 H        1.8870     7.6540    -0.0020 H     1 <1>   0.0800 
 44 H        0.6610     6.6530     0.7200 H     1 <1>   0.0800 
 45 H        7.5930     1.5190     2.0000 H     1 <1>   0.1500 
 46 H        6.9740     3.0550    -1.9240 H     1 <1>   0.1500 
 47 H        9.9180     2.2410     1.9150 H     1 <1>   0.1500 
 48 H        9.2970     3.7770    -2.0090 H     1 <1>   0.1500 
 49 H       11.3030     4.5150     0.2600 H     1 <1>   0.0800 
 50 H       11.5890     3.4760    -1.1180 H     1 <1>   0.0800 
 51 H       11.8390     2.8670     0.4970 H     1 <1>   0.0800 
@<TRIPOS>BOND
  1   1   2  2   
  2   2   3  am  
  3   2   4  am  
  4   3   5  1   
  5   3   6  1   
  6   4   7  1   
  7   4  26  1   
  8   5   8  1   
  9   5   9  1   
 10   5  27  1   
 11   6  10  1   
 12   6  28  1   
 13   6  29  1   
 14   7  11  1   
 15   7  30  1   
 16   7  31  1   
 17   8  12  1   
 18   8  32  1   
 19   8  33  1   
 20   9  13  1   
 21   9  34  1   
 22   9  35  1   
 23  10  14  1   
 24  10  15  2   
 25  11  36  1   
 26  11  37  1   
 27  11  38  1   
 28  12  16  1   
 29  12  39  1   
 30  12  40  1   
 31  13  16  1   
 32  13  41  1   
 33  13  42  1   
 34  14  17  1   
 35  15  18  1   
 36  16  43  1   
 37  16  44  1   
 38  17  18  2   
 39  18  19  1   
 40  19  20  ar  
 41  19  21  ar  
 42  20  22  ar  
 43  20  45  1   
 44  21  23  ar  
 45  21  46  1   
 46  22  24  ar  
 47  22  47  1   
 48  23  24  ar  
 49  23  48  1   
 50  24  25  1   
 51  25  49  1   
 52  25  50  1   
 53  25  51  1   
@<TRIPOS>SUBSTRUCTURE
  1 ****  10 GROUP 4 **** **** 0

# MOE 2024.06 (io_trps.svl 2023.06)
