@<TRIPOS>MOLECULE
7-[3-(3,4-Dimethyl-phenoxy)-2-hydroxy-propyl]-8-[(furan-2-ylmethyl)-amino]-3-met
58 61 1 0 0 
SMALL
USER_CHARGES


@<TRIPOS>ATOM
  1 O        2.0860     2.0990     0.7010 O.2   1 <1>  -0.5740 
  2 C        3.2710     2.1690     0.4730 C.2   1 <1>   0.6870 
  3 N        4.0990     1.0570     0.5100 N.am  1 <1>  -0.4410 
  4 N        3.8030     3.3890     0.1670 N.am  1 <1>  -0.4940 
  5 C        5.4410     1.2470     0.2200 C.2   1 <1>   0.4210 
  6 C        3.5750    -0.2960     0.8550 C.3   1 <1>   0.0530 
  7 C        5.1250     3.5930    -0.1130 C.2   1 <1>   0.7000 
  8 N        6.4290     0.3200     0.2060 N.pl3 1 <1>  -0.7030 
  9 C        5.9840     2.4440    -0.0950 C.2   1 <1>   0.2710 
 10 O        5.5110     4.7220    -0.3560 O.2   1 <1>  -0.5740 
 11 C        7.5730     0.9150    -0.0990 C.cat 1 <1>   1.0690 
 12 N        7.3570     2.2120    -0.3170 N.pl3 1 <1>  -0.7670 
 13 N        8.7710     0.3330    -0.1750 N.pl3 1 <1>  -0.7170 
 14 C        8.3290     3.3170    -0.5840 C.3   1 <1>   0.3490 
 15 C        9.2000    -1.0710     0.1010 C.3   1 <1>   0.3420 
 16 C        8.8010     4.0030     0.7200 C.3   1 <1>   0.1940 
 17 C        8.1150    -1.9330     0.7250 C.2   1 <1>  -0.0470 
 18 O        7.7150     4.3870     1.5060 O.3   1 <1>  -0.6830 
 19 C        9.6820     5.2190     0.4340 C.3   1 <1>   0.1130 
 20 O        7.1350    -2.3840    -0.0370 O.3   1 <1>  -0.2860 
 21 C        7.9500    -2.3530     1.9980 C.2   1 <1>  -0.1560 
 22 O       10.6990     4.8110    -0.4580 O.3   1 <1>  -0.3680 
 23 C        6.3380    -3.1100     0.7210 C.2   1 <1>  -0.0170 
 24 C        6.7810    -3.1240     1.9950 C.2   1 <1>  -0.1560 
 25 C       11.6190     5.6940    -0.9220 C.ar  1 <1>   0.0760 
 26 C       11.6780     7.0290    -0.5330 C.ar  1 <1>  -0.1560 
 27 C       12.5390     5.2130    -1.8360 C.ar  1 <1>  -0.1560 
 28 C       12.6460     7.8740    -1.0550 C.ar  1 <1>  -0.1500 
 29 C       13.5050     6.0520    -2.3590 C.ar  1 <1>  -0.1560 
 30 C       13.5670     7.3830    -1.9750 C.ar  1 <1>  -0.1500 
 31 C       12.6790     9.3290    -0.6060 C.3   1 <1>  -0.1030 
 32 C       14.6460     8.2730    -2.5750 C.3   1 <1>  -0.1030 
 33 H        3.1690     4.1850     0.1620 H     1 <1>   0.3650 
 34 H        2.5400    -0.2440     1.1460 H     1 <1>   0.0730 
 35 H        4.1370    -0.7100     1.6740 H     1 <1>   0.0730 
 36 H        3.6570    -0.9470     0.0010 H     1 <1>   0.0730 
 37 H        6.3680    -0.6890     0.3820 H     1 <1>   0.4450 
 38 H        9.5450     0.9280    -0.4610 H     1 <1>   0.4450 
 39 H        7.8760     4.0510    -1.2290 H     1 <1>   0.0730 
 40 H        9.1830     2.9260    -1.1100 H     1 <1>   0.0730 
 41 H       10.0410    -1.0460     0.7730 H     1 <1>   0.0730 
 42 H        9.5270    -1.5330    -0.8160 H     1 <1>   0.0730 
 43 H        9.3730     3.3030     1.3040 H     1 <1>   0.0730 
 44 H        7.1780     5.0800     1.0580 H     1 <1>   0.3950 
 45 H       10.1460     5.5740     1.3390 H     1 <1>   0.0730 
 46 H        9.1180     6.0040    -0.0400 H     1 <1>   0.0730 
 47 H        8.5620    -2.1690     2.8660 H     1 <1>   0.1440 
 48 H        5.4820    -3.5910     0.2770 H     1 <1>   0.1440 
 49 H        6.3600    -3.6240     2.8510 H     1 <1>   0.1440 
 50 H       10.9800     7.4270     0.1770 H     1 <1>   0.1440 
 51 H       12.5020     4.1840    -2.1390 H     1 <1>   0.1440 
 52 H       14.2130     5.6610    -3.0680 H     1 <1>   0.1440 
 53 H       11.9050     9.5310     0.1120 H     1 <1>   0.0730 
 54 H       12.5330     9.9770    -1.4500 H     1 <1>   0.0730 
 55 H       13.6270     9.5520    -0.1510 H     1 <1>   0.0730 
 56 H       14.1960     9.0960    -3.1000 H     1 <1>   0.0730 
 57 H       15.2580     7.7260    -3.2680 H     1 <1>   0.0730 
 58 H       15.2800     8.6570    -1.7960 H     1 <1>   0.0730 
@<TRIPOS>BOND
  1   1   2  2   
  2   2   3  am  
  3   2   4  am  
  4   3   5  1   
  5   3   6  1   
  6   4   7  am  
  7   4  33  1   
  8   5   8  1   
  9   5   9  2   
 10   6  34  1   
 11   6  35  1   
 12   6  36  1   
 13   7   9  1   
 14   7  10  2   
 15   8  11  ar  
 16   8  37  1   
 17   9  12  1   
 18  11  12  ar  
 19  11  13  ar  
 20  12  14  1   
 21  13  15  1   
 22  13  38  1   
 23  14  16  1   
 24  14  39  1   
 25  14  40  1   
 26  15  17  1   
 27  15  41  1   
 28  15  42  1   
 29  16  18  1   
 30  16  19  1   
 31  16  43  1   
 32  17  20  1   
 33  17  21  2   
 34  18  44  1   
 35  19  22  1   
 36  19  45  1   
 37  19  46  1   
 38  20  23  1   
 39  21  24  1   
 40  21  47  1   
 41  22  25  1   
 42  23  24  2   
 43  23  48  1   
 44  24  49  1   
 45  25  26  ar  
 46  25  27  ar  
 47  26  28  ar  
 48  26  50  1   
 49  27  29  ar  
 50  27  51  1   
 51  28  30  ar  
 52  28  31  1   
 53  29  30  ar  
 54  29  52  1   
 55  30  32  1   
 56  31  53  1   
 57  31  54  1   
 58  31  55  1   
 59  32  56  1   
 60  32  57  1   
 61  32  58  1   
@<TRIPOS>SUBSTRUCTURE
  1 ****  14 GROUP 4 **** **** 0

# MOE 2024.06 (io_trps.svl 2023.06)
