@<TRIPOS>MOLECULE
3-Allyl-8-(2,5-dimethoxy-phenyl)-1-methyl-7,8-dihydro-1H,6H-imidazo[2,1-f]purine
50 53 1 0 0 
SMALL
USER_CHARGES


@<TRIPOS>ATOM
  1 O        1.1400     2.8700     2.6370 O.2   1 <1>  -0.5750 
  2 C        1.8420     2.5010     1.7180 C.2   1 <1>   0.6860 
  3 N        1.9250     3.2490     0.5490 N.am  1 <1>  -0.4260 
  4 N        2.5860     1.3340     1.8510 N.am  1 <1>  -0.4420 
  5 C        2.7980     2.9060    -0.4700 C.2   1 <1>   0.6990 
  6 C        0.9900     4.3850     0.3450 C.3   1 <1>   0.2720 
  7 C        3.4440     0.9880     0.8250 C.2   1 <1>   0.4200 
  8 C        2.4750     0.4930     3.0790 C.3   1 <1>   0.0520 
  9 O        2.9080     3.5970    -1.4690 O.2   1 <1>  -0.5750 
 10 C        3.5760     1.7190    -0.3060 C.2   1 <1>   0.2700 
 11 C       -0.1990     3.8980    -0.4630 C.2   1 <1>  -0.2950 
 12 N        4.2950    -0.0810     0.7600 N.pl3 1 <1>  -0.7040 
 13 N        4.5440     1.0560    -1.0690 N.pl3 1 <1>  -0.7670 
 14 C       -1.4340     3.7300     0.0170 C.2   1 <1>  -0.3060 
 15 C        4.9440     0.0070    -0.3930 C.cat 1 <1>   1.0690 
 16 C        5.2760     1.2150    -2.3340 C.3   1 <1>   0.3480 
 17 N        5.8930    -0.7030    -1.0110 N.pl3 1 <1>  -0.5800 
 18 C        6.2170    -0.0150    -2.3020 C.3   1 <1>   0.1600 
 19 C        6.5840    -1.8440    -0.5440 C.ar  1 <1>   0.3050 
 20 C        7.0690    -1.9380     0.7720 C.ar  1 <1>   0.0750 
 21 C        6.7900    -2.9050    -1.4160 C.ar  1 <1>  -0.1570 
 22 O        6.8690    -0.8850     1.6220 O.3   1 <1>  -0.3680 
 23 C        7.7380    -3.0860     1.1830 C.ar  1 <1>  -0.1570 
 24 C        7.4630    -4.0470    -1.0010 C.ar  1 <1>   0.0750 
 25 C        7.6950    -0.7170     2.7590 C.3   1 <1>   0.0320 
 26 C        7.9320    -4.1290     0.2970 C.ar  1 <1>  -0.1570 
 27 O        7.6980    -5.1200    -1.7980 O.3   1 <1>  -0.3680 
 28 C        7.2490    -5.1670    -3.1340 C.3   1 <1>   0.0320 
 29 H        1.4840     5.1880    -0.1760 H     1 <1>   0.0720 
 30 H        0.6550     4.7730     1.2910 H     1 <1>   0.0720 
 31 H        1.5100     0.6260     3.5390 H     1 <1>   0.0720 
 32 H        3.2350     0.7800     3.7850 H     1 <1>   0.0720 
 33 H        2.5860    -0.5480     2.8340 H     1 <1>   0.0720 
 34 H        0.0540     3.6980    -1.4910 H     1 <1>   0.1430 
 35 H        4.5470    -0.7570     1.4800 H     1 <1>   0.4450 
 36 H       -2.2680     3.3870    -0.5720 H     1 <1>   0.1430 
 37 H       -1.7180     3.9180     1.0390 H     1 <1>   0.1430 
 38 H        5.8310     2.1380    -2.3450 H     1 <1>   0.0720 
 39 H        4.6040     1.1790    -3.1750 H     1 <1>   0.0720 
 40 H        7.2490     0.2930    -2.3160 H     1 <1>   0.0720 
 41 H        6.0220    -0.6600    -3.1410 H     1 <1>   0.0720 
 42 H        6.4160    -2.8390    -2.4180 H     1 <1>   0.1430 
 43 H        8.1160    -3.1970     2.1830 H     1 <1>   0.1430 
 44 H        7.4970     0.2520     3.1810 H     1 <1>   0.0720 
 45 H        8.7270    -0.7770     2.4580 H     1 <1>   0.0720 
 46 H        7.4630    -1.4800     3.4810 H     1 <1>   0.0720 
 47 H        8.4510    -5.0200     0.6100 H     1 <1>   0.1430 
 48 H        7.5450    -6.1130    -3.5510 H     1 <1>   0.0720 
 49 H        7.7070    -4.3670    -3.6870 H     1 <1>   0.0720 
 50 H        6.1760    -5.0850    -3.1470 H     1 <1>   0.0720 
@<TRIPOS>BOND
  1   1   2  2   
  2   2   3  am  
  3   2   4  am  
  4   3   5  am  
  5   3   6  1   
  6   4   7  1   
  7   4   8  1   
  8   5   9  2   
  9   5  10  1   
 10   6  11  1   
 11   6  29  1   
 12   6  30  1   
 13   7  10  2   
 14   7  12  1   
 15   8  31  1   
 16   8  32  1   
 17   8  33  1   
 18  10  13  1   
 19  11  14  2   
 20  11  34  1   
 21  12  15  ar  
 22  12  35  1   
 23  13  15  ar  
 24  13  16  1   
 25  14  36  1   
 26  14  37  1   
 27  15  17  ar  
 28  16  18  1   
 29  16  38  1   
 30  16  39  1   
 31  17  18  1   
 32  17  19  1   
 33  18  40  1   
 34  18  41  1   
 35  19  20  ar  
 36  19  21  ar  
 37  20  22  1   
 38  20  23  ar  
 39  21  24  ar  
 40  21  42  1   
 41  22  25  1   
 42  23  26  ar  
 43  23  43  1   
 44  24  26  ar  
 45  24  27  1   
 46  25  44  1   
 47  25  45  1   
 48  25  46  1   
 49  26  47  1   
 50  27  28  1   
 51  28  48  1   
 52  28  49  1   
 53  28  50  1   
@<TRIPOS>SUBSTRUCTURE
  1 ****  15 GROUP 4 **** **** 0

# MOE 2024.06 (io_trps.svl 2023.06)
