@<TRIPOS>MOLECULE
(1-Methyl-2,4-dioxo-1,3-diaza-spiro[4.5]dec-3-yl)-acetic acid
32 33 1 0 0 
SMALL
USER_CHARGES


@<TRIPOS>ATOM
  1 O       -0.0490    -0.0070     0.4440 O.2   1 <1>  -0.5700 
  2 C       -0.8650     0.8190     0.0760 C.2   1 <1>   0.6900 
  3 N       -0.5740     1.8590    -0.7620 N.am  1 <1>  -0.4200 
  4 N       -2.1840     0.7810     0.4200 N.am  1 <1>  -0.6600 
  5 C       -1.7140     2.5620    -1.0080 C.2   1 <1>   0.5690 
  6 C        0.7540     2.5460    -0.7200 C.3   1 <1>   0.0340 
  7 C       -2.8620     1.9710    -0.1710 C.3   1 <1>   0.3610 
  8 C       -2.7260    -0.0140     1.5510 C.3   1 <1>   0.0600 
  9 O       -1.8270     3.4730    -1.8010 O.2   1 <1>  -0.5700 
 10 C        0.9210     3.4930     0.4670 C.2   1 <1>   0.9060 
 11 C       -4.0420     1.4960    -1.0530 C.3   1 <1>  -0.1600 
 12 C       -3.2980     2.9710     0.9280 C.3   1 <1>  -0.1600 
 13 O        2.0100     4.0610     0.6020 O.co2 1 <1>  -0.9000 
 14 O       -0.0180     3.6830     1.2550 O.co2 1 <1>  -0.9000 
 15 C       -5.1300     2.5740    -1.1780 C.3   1 <1>  -0.1600 
 16 C       -4.7570     2.7730     1.3710 C.3   1 <1>  -0.1600 
 17 C       -5.7350     2.9370     0.1920 C.3   1 <1>  -0.1600 
 18 H        0.8840     3.1210    -1.6170 H     1 <1>   0.0800 
 19 H        1.5350     1.8120    -0.6660 H     1 <1>   0.0800 
 20 H       -2.0790    -0.8510     1.7490 H     1 <1>   0.0800 
 21 H       -3.7070    -0.3810     1.3110 H     1 <1>   0.0800 
 22 H       -2.7730     0.5980     2.4350 H     1 <1>   0.0800 
 23 H       -4.4900     0.6180    -0.6250 H     1 <1>   0.0800 
 24 H       -3.6770     1.2370    -2.0310 H     1 <1>   0.0800 
 25 H       -3.2090     3.9690     0.5340 H     1 <1>   0.0800 
 26 H       -2.6230     2.9170     1.7650 H     1 <1>   0.0800 
 27 H       -5.9080     2.2400    -1.8420 H     1 <1>   0.0800 
 28 H       -4.6870     3.4550    -1.6140 H     1 <1>   0.0800 
 29 H       -5.0000     3.4810     2.1440 H     1 <1>   0.0800 
 30 H       -4.8680     1.7890     1.7880 H     1 <1>   0.0800 
 31 H       -6.5990     2.3210     0.3770 H     1 <1>   0.0800 
 32 H       -6.0730     3.9580     0.1500 H     1 <1>   0.0800 
@<TRIPOS>BOND
  1   1   2  2   
  2   2   3  am  
  3   2   4  am  
  4   3   5  am  
  5   3   6  1   
  6   4   7  1   
  7   4   8  1   
  8   5   7  1   
  9   5   9  2   
 10   6  10  1   
 11   6  18  1   
 12   6  19  1   
 13   7  11  1   
 14   7  12  1   
 15   8  20  1   
 16   8  21  1   
 17   8  22  1   
 18  10  13  ar  
 19  10  14  ar  
 20  11  15  1   
 21  11  23  1   
 22  11  24  1   
 23  12  16  1   
 24  12  25  1   
 25  12  26  1   
 26  15  17  1   
 27  15  27  1   
 28  15  28  1   
 29  16  17  1   
 30  16  29  1   
 31  16  30  1   
 32  17  31  1   
 33  17  32  1   
@<TRIPOS>SUBSTRUCTURE
  1 ****   7 GROUP 4 **** **** 0

# MOE 2024.06 (io_trps.svl 2023.06)
