@<TRIPOS>MOLECULE
C-(1-Ethyl-1H-benzoimidazol-2-yl)-methylamine
27 28 1 0 0 
SMALL
USER_CHARGES


@<TRIPOS>ATOM
  1 N       -0.1090    -0.2660     0.3400 N.2   1 <1>  -0.5650 
  2 C       -1.4010    -0.6020     0.0700 C.ar  1 <1>   0.2270 
  3 C        0.5530    -1.3590     0.1480 C.2   1 <1>   0.0060 
  4 C       -1.4870    -1.9350    -0.2870 C.ar  1 <1>  -0.1520 
  5 C       -2.5480     0.1880     0.1170 C.ar  1 <1>  -0.1500 
  6 N       -0.2170    -2.4180    -0.2390 N.pl3 1 <1>   0.0480 
  7 C        2.0560    -1.4400     0.3550 C.3   1 <1>   0.5230 
  8 C       -2.7210    -2.5130    -0.6030 C.ar  1 <1>  -0.1500 
  9 C       -3.7650    -0.3760    -0.1960 C.ar  1 <1>  -0.1500 
 10 C        0.1770    -3.8150    -0.5400 C.3   1 <1>   0.0960 
 11 N        2.5270    -0.0510     0.5350 N.4   1 <1>  -0.8530 
 12 C       -3.8500    -1.7260    -0.5550 C.ar  1 <1>  -0.1500 
 13 C        0.2030    -4.6560     0.7400 C.3   1 <1>  -0.2400 
 14 H       -2.4610     1.2220     0.3960 H     1 <1>   0.1500 
 15 H        2.5360    -1.8990    -0.4940 H     1 <1>   0.0800 
 16 H        2.2580    -2.0220     1.2390 H     1 <1>   0.0800 
 17 H       -2.7880    -3.5510    -0.8770 H     1 <1>   0.1500 
 18 H       -4.6630     0.2180    -0.1670 H     1 <1>   0.1500 
 19 H        1.1420    -3.8230    -1.0120 H     1 <1>   0.0800 
 20 H       -0.5330    -4.2330    -1.2330 H     1 <1>   0.0800 
 21 H        2.7420     0.3840    -0.3650 H     1 <1>   0.4500 
 22 H        3.2960     0.0510     1.2000 H     1 <1>   0.4500 
 23 H        1.6860     0.4430     0.8830 H     1 <1>   0.4500 
 24 H       -4.8130    -2.1430    -0.7940 H     1 <1>   0.1500 
 25 H        0.9220    -4.2740     1.4430 H     1 <1>   0.0800 
 26 H        0.4680    -5.6710     0.5020 H     1 <1>   0.0800 
 27 H       -0.7710    -4.6640     1.1990 H     1 <1>   0.0800 
@<TRIPOS>BOND
  1   1   2  1   
  2   1   3  2   
  3   2   4  ar  
  4   2   5  ar  
  5   3   6  1   
  6   3   7  1   
  7   4   6  1   
  8   4   8  ar  
  9   5   9  ar  
 10   5  14  1   
 11   6  10  1   
 12   7  11  1   
 13   7  15  1   
 14   7  16  1   
 15   8  12  ar  
 16   8  17  1   
 17   9  12  ar  
 18   9  18  1   
 19  10  13  1   
 20  10  19  1   
 21  10  20  1   
 22  11  21  1   
 23  11  22  1   
 24  11  23  1   
 25  12  24  1   
 26  13  25  1   
 27  13  26  1   
 28  13  27  1   
@<TRIPOS>SUBSTRUCTURE
  1 ****   4 GROUP 4 **** **** 0

# MOE 2024.06 (io_trps.svl 2023.06)
