@<TRIPOS>MOLECULE
2-[(Z)-3-Ethoxy-propylimino]-6-methyl-10-oxo-1,10-dihydro-2H-1,9,10a-triaza-anth
48 50 1 0 0 
SMALL
USER_CHARGES


@<TRIPOS>ATOM
  1 O       -0.0770    -0.3000     0.2790 O.2   1 <1>  -0.5700 
  2 C       -0.0040    -1.4990     0.1420 C.2   1 <1>   0.8650 
  3 N       -1.1950    -2.2470     0.1020 N.pl3 1 <1>  -0.5760 
  4 C        1.2670    -2.1410     0.0310 C.ar  1 <1>   0.0860 
  5 C       -1.1410    -3.5940    -0.0240 C.cat 1 <1>   0.7390 
  6 C       -2.4240    -1.6300     0.1910 C.2   1 <1>   0.1910 
  7 C        1.2500    -3.5240    -0.0940 C.ar  1 <1>   0.6590 
  8 C        2.5050    -1.5110     0.0350 C.ar  1 <1>  -0.1500 
  9 N        0.0610    -4.1810    -0.1110 N.pl3 1 <1>  -0.6530 
 10 C       -2.3240    -4.3440    -0.0610 C.2   1 <1>  -0.1800 
 11 C       -3.5930    -2.3430     0.1560 C.2   1 <1>  -0.1380 
 12 N        2.3040    -4.2940    -0.2030 N.ar  1 <1>  -0.6200 
 13 C        3.6510    -2.2800    -0.0830 C.ar  1 <1>   0.0860 
 14 C       -3.5470    -3.7350     0.0270 C.2   1 <1>  -0.1500 
 15 C       -4.9510    -1.6650     0.2540 C.3   1 <1>  -0.1020 
 16 C        3.4850    -3.6820    -0.2020 C.ar  1 <1>   0.4100 
 17 C        4.9590    -1.6650    -0.0880 C.2   1 <1>   0.5440 
 18 N        4.5700    -4.4990    -0.3230 N.pl3 1 <1>  -0.8690 
 19 O        5.8640    -2.0730    -0.7840 O.2   1 <1>  -0.5700 
 20 N        5.2490    -0.5840     0.6740 N.am  1 <1>  -0.8000 
 21 C        4.6060    -5.9700    -0.4660 C.3   1 <1>   0.2090 
 22 C        5.9930    -6.4660    -0.0660 C.3   1 <1>  -0.1600 
 23 C        6.1010    -7.9830    -0.2100 C.3   1 <1>   0.1200 
 24 O        7.3840    -8.3530     0.1650 O.3   1 <1>  -0.5600 
 25 C        7.6310    -9.7160     0.0810 C.3   1 <1>   0.1200 
 26 C        9.0700    -9.9500     0.5260 C.3   1 <1>  -0.2400 
 27 H       -2.4570    -0.5540     0.2900 H     1 <1>   0.1500 
 28 H        2.5690    -0.4370     0.1180 H     1 <1>   0.1500 
 29 H        0.1520    -5.1930    -0.2090 H     1 <1>   0.4500 
 30 H       -2.2640    -5.4120    -0.1610 H     1 <1>   0.1500 
 31 H       -4.4640    -4.3030    -0.0010 H     1 <1>   0.1500 
 32 H       -5.4860    -2.0320     1.1130 H     1 <1>   0.0800 
 33 H       -5.5320    -1.8720    -0.6270 H     1 <1>   0.0800 
 34 H       -4.8490    -0.5980     0.3500 H     1 <1>   0.0800 
 35 H        5.4720    -4.0320    -0.5320 H     1 <1>   0.4000 
 36 H        6.2040    -0.2190     0.6380 H     1 <1>   0.3700 
 37 H        4.6690    -0.2250     1.4320 H     1 <1>   0.3700 
 38 H        4.4000    -6.2310    -1.4910 H     1 <1>   0.0800 
 39 H        3.8570    -6.4170     0.1660 H     1 <1>   0.0800 
 40 H        6.1830    -6.1990     0.9590 H     1 <1>   0.0800 
 41 H        6.7330    -6.0060    -0.6960 H     1 <1>   0.0800 
 42 H        5.9420    -8.2820    -1.2330 H     1 <1>   0.0800 
 43 H        5.3960    -8.4800     0.4350 H     1 <1>   0.0800 
 44 H        7.4930   -10.0340    -0.9380 H     1 <1>   0.0800 
 45 H        6.9450   -10.2360     0.7290 H     1 <1>   0.0800 
 46 H        9.7440    -9.4150    -0.1190 H     1 <1>   0.0800 
 47 H        9.3020   -10.9970     0.4770 H     1 <1>   0.0800 
 48 H        9.2000    -9.6130     1.5380 H     1 <1>   0.0800 
@<TRIPOS>BOND
  1   1   2  2   
  2   2   3  1   
  3   2   4  1   
  4   3   5  ar  
  5   3   6  1   
  6   4   7  ar  
  7   4   8  ar  
  8   5   9  ar  
  9   5  10  1   
 10   6  11  2   
 11   6  27  1   
 12   7   9  1   
 13   7  12  ar  
 14   8  13  ar  
 15   8  28  1   
 16   9  29  1   
 17  10  14  2   
 18  10  30  1   
 19  11  14  1   
 20  11  15  1   
 21  12  16  ar  
 22  13  16  ar  
 23  13  17  1   
 24  14  31  1   
 25  15  32  1   
 26  15  33  1   
 27  15  34  1   
 28  16  18  1   
 29  17  19  2   
 30  17  20  am  
 31  18  21  1   
 32  18  35  1   
 33  20  36  1   
 34  20  37  1   
 35  21  22  1   
 36  21  38  1   
 37  21  39  1   
 38  22  23  1   
 39  22  40  1   
 40  22  41  1   
 41  23  24  1   
 42  23  42  1   
 43  23  43  1   
 44  24  25  1   
 45  25  26  1   
 46  25  44  1   
 47  25  45  1   
 48  26  46  1   
 49  26  47  1   
 50  26  48  1   
@<TRIPOS>SUBSTRUCTURE
  1 ****  12 GROUP 4 **** **** 0

# MOE 2024.06 (io_trps.svl 2023.06)
