@<TRIPOS>MOLECULE
Morpholine-4-carboxylic acid [3-(3,4-dimethoxy-phenyl)-[1,2,4]oxadiazol-5-ylmeth
45 47 1 0 0 
SMALL
USER_CHARGES


@<TRIPOS>ATOM
  1 O        0.0340     1.0750     1.2940 O.2   1 <1>  -0.5700 
  2 C        0.4850     1.6720     0.3360 C.2   1 <1>   0.6900 
  3 N       -0.3360     2.2610    -0.5840 N.am  1 <1>  -0.6600 
  4 N        1.8220     1.7390     0.1670 N.am  1 <1>  -0.7300 
  5 C        0.0520     3.4450    -1.4080 C.3   1 <1>   0.1400 
  6 C       -1.8070     2.0040    -0.5880 C.3   1 <1>   0.1400 
  7 C        2.8020     1.1340     1.1020 C.3   1 <1>   0.3200 
  8 C       -0.8360     4.6540    -1.0660 C.3   1 <1>   0.1200 
  9 C       -2.5830     3.2960    -0.2890 C.3   1 <1>   0.1200 
 10 C        4.1060     1.9160     1.1110 C.2   1 <1>   0.2980 
 11 O       -2.1910     4.3190    -1.1620 O.3   1 <1>  -0.5600 
 12 O        4.1130     3.1110     1.6420 O.3   1 <1>  -0.0190 
 13 N        5.2170     1.5240     0.6380 N.2   1 <1>  -0.5650 
 14 N        5.3350     3.5150     1.4930 N.2   1 <1>  -0.4100 
 15 C        5.9940     2.5800     0.9020 C.2   1 <1>   0.4620 
 16 C        7.4030     2.6310     0.5480 C.ar  1 <1>   0.0540 
 17 C        8.0410     1.5670    -0.0890 C.ar  1 <1>  -0.1500 
 18 C        8.1810     3.7520     0.8340 C.ar  1 <1>  -0.1500 
 19 C        9.3820     1.6020    -0.4280 C.ar  1 <1>   0.0820 
 20 C        9.5200     3.8150     0.4960 C.ar  1 <1>  -0.1500 
 21 O        9.8510     0.4740    -1.0340 O.3   1 <1>  -0.3630 
 22 C       10.1430     2.7480    -0.1480 C.ar  1 <1>   0.0820 
 23 C       11.1650     0.0180    -0.7980 C.3   1 <1>   0.0400 
 24 O       11.4530     2.8090    -0.5190 O.3   1 <1>  -0.3630 
 25 C       12.2070     3.9980    -0.4270 C.3   1 <1>   0.0400 
 26 H        2.1730     1.9910    -0.7530 H     1 <1>   0.3700 
 27 H       -0.0640     3.2050    -2.4500 H     1 <1>   0.0800 
 28 H        1.0790     3.7130    -1.2370 H     1 <1>   0.0800 
 29 H       -2.0670     1.2550     0.1400 H     1 <1>   0.0800 
 30 H       -2.0980     1.6340    -1.5550 H     1 <1>   0.0800 
 31 H        2.9980     0.1220     0.7970 H     1 <1>   0.0800 
 32 H        2.3960     1.1140     2.0990 H     1 <1>   0.0800 
 33 H       -0.6480     5.4600    -1.7530 H     1 <1>   0.0800 
 34 H       -0.6370     4.9990    -0.0660 H     1 <1>   0.0800 
 35 H       -2.4050     3.6160     0.7240 H     1 <1>   0.0800 
 36 H       -3.6380     3.1360    -0.4210 H     1 <1>   0.0800 
 37 H        7.4830     0.6810    -0.3280 H     1 <1>   0.1500 
 38 H        7.7280     4.5930     1.3310 H     1 <1>   0.1500 
 39 H       10.0590     4.7090     0.7430 H     1 <1>   0.1500 
 40 H       11.2030    -1.0300    -1.0320 H     1 <1>   0.0800 
 41 H       11.4130     0.1750     0.2370 H     1 <1>   0.0800 
 42 H       11.8400     0.5570    -1.4380 H     1 <1>   0.0800 
 43 H       13.1780     3.8100    -0.8500 H     1 <1>   0.0800 
 44 H       12.3070     4.2690     0.6080 H     1 <1>   0.0800 
 45 H       11.7100     4.7710    -0.9860 H     1 <1>   0.0800 
@<TRIPOS>BOND
  1   1   2  2   
  2   2   3  am  
  3   2   4  am  
  4   3   5  1   
  5   3   6  1   
  6   4   7  1   
  7   4  26  1   
  8   5   8  1   
  9   5  27  1   
 10   5  28  1   
 11   6   9  1   
 12   6  29  1   
 13   6  30  1   
 14   7  10  1   
 15   7  31  1   
 16   7  32  1   
 17   8  11  1   
 18   8  33  1   
 19   8  34  1   
 20   9  11  1   
 21   9  35  1   
 22   9  36  1   
 23  10  12  1   
 24  10  13  2   
 25  12  14  1   
 26  13  15  1   
 27  14  15  2   
 28  15  16  1   
 29  16  17  ar  
 30  16  18  ar  
 31  17  19  ar  
 32  17  37  1   
 33  18  20  ar  
 34  18  38  1   
 35  19  21  1   
 36  19  22  ar  
 37  20  22  ar  
 38  20  39  1   
 39  21  23  1   
 40  22  24  1   
 41  23  40  1   
 42  23  41  1   
 43  23  42  1   
 44  24  25  1   
 45  25  43  1   
 46  25  44  1   
 47  25  45  1   
@<TRIPOS>SUBSTRUCTURE
  1 ****  13 GROUP 4 **** **** 0

# MOE 2024.06 (io_trps.svl 2023.06)
