@<TRIPOS>MOLECULE
7-(4-Bromo-benzyl)-3-methyl-8-piperazin-1-yl-3,7-dihydro-purine-2,6-dione
47 50 1 0 0 
SMALL
USER_CHARGES


@<TRIPOS>ATOM
  1 BR       0.2630    -1.9030     2.1510 Br    1 <1>  -0.1190 
  2 C       -1.3530    -2.3090     1.1970 C.ar  1 <1>   0.1030 
  3 C       -2.3880    -2.9260     1.8700 C.ar  1 <1>  -0.1580 
  4 C       -1.4310    -1.9950    -0.1460 C.ar  1 <1>  -0.1580 
  5 C       -3.5380    -3.2460     1.1690 C.ar  1 <1>  -0.1580 
  6 C       -2.5850    -2.3240    -0.8380 C.ar  1 <1>  -0.1580 
  7 C       -3.6410    -2.9600    -0.1910 C.ar  1 <1>  -0.1520 
  8 C       -4.9160    -3.2860    -0.9690 C.3   1 <1>   0.4920 
  9 N       -5.3900    -4.6780    -0.6990 N.pl3 1 <1>  -0.7680 
 10 C       -4.7180    -5.8160    -0.4700 C.cat 1 <1>   1.0680 
 11 C       -6.7480    -4.9350    -0.4090 C.2   1 <1>   0.2700 
 12 N       -5.5600    -6.7400    -0.0030 N.pl3 1 <1>  -0.7040 
 13 N       -3.4000    -6.0740    -0.6630 N.pl3 1 <1>  -0.5970 
 14 C       -7.9710    -4.1870    -0.4810 C.2   1 <1>   0.6990 
 15 C       -6.8130    -6.2130     0.0270 C.2   1 <1>   0.4200 
 16 C       -2.6140    -5.5790    -1.8520 C.3   1 <1>   0.1600 
 17 C       -2.6090    -6.9850     0.2340 C.3   1 <1>   0.1600 
 18 O       -8.0250    -3.0380    -0.8690 O.2   1 <1>  -0.5750 
 19 N       -9.1180    -4.8170    -0.0970 N.am  1 <1>  -0.4960 
 20 N       -7.9870    -6.8400     0.4170 N.am  1 <1>  -0.4420 
 21 C       -1.1110    -5.3520    -1.5450 C.3   1 <1>   0.3360 
 22 C       -1.3170    -6.3070     0.7630 C.3   1 <1>   0.3360 
 23 C       -9.1640    -6.1080     0.3400 C.2   1 <1>   0.6860 
 24 C       -8.0010    -8.2570     0.8860 C.3   1 <1>   0.0510 
 25 N       -0.8680    -5.1520    -0.0830 N.4   1 <1>  -0.9090 
 26 O      -10.2360    -6.5760     0.6430 O.2   1 <1>  -0.5750 
 27 H       -2.2990    -3.1300     2.9250 H     1 <1>   0.1420 
 28 H       -0.6130    -1.4880    -0.6310 H     1 <1>   0.1420 
 29 H       -4.3590    -3.6980     1.7010 H     1 <1>   0.1420 
 30 H       -2.6550    -2.0560    -1.8810 H     1 <1>   0.1420 
 31 H       -4.7600    -3.1610    -2.0270 H     1 <1>   0.0710 
 32 H       -5.6640    -2.5730    -0.6690 H     1 <1>   0.0710 
 33 H       -5.3340    -7.7110     0.1950 H     1 <1>   0.4440 
 34 H       -3.0350    -4.6680    -2.2310 H     1 <1>   0.0710 
 35 H       -2.6890    -6.3020    -2.6470 H     1 <1>   0.0710 
 36 H       -2.3350    -7.8680    -0.3190 H     1 <1>   0.0710 
 37 H       -3.1980    -7.3040     1.0770 H     1 <1>   0.0710 
 38 H      -10.0000    -4.3090    -0.1470 H     1 <1>   0.3630 
 39 H       -0.7570    -4.4990    -2.1010 H     1 <1>   0.0710 
 40 H       -0.5530    -6.2110    -1.8830 H     1 <1>   0.0710 
 41 H       -0.5360    -7.0490     0.8100 H     1 <1>   0.0710 
 42 H       -1.4850    -5.9600     1.7700 H     1 <1>   0.0710 
 43 H       -7.8690    -8.9200     0.0480 H     1 <1>   0.0710 
 44 H       -8.9390    -8.4930     1.3600 H     1 <1>   0.0710 
 45 H       -7.2160    -8.4200     1.6030 H     1 <1>   0.0710 
 46 H       -1.3800    -4.3030     0.2140 H     1 <1>   0.4440 
 47 H        0.1270    -4.9470     0.0950 H     1 <1>   0.4440 
@<TRIPOS>BOND
  1   1   2  1   
  2   2   3  ar  
  3   2   4  ar  
  4   3   5  ar  
  5   3  27  1   
  6   4   6  ar  
  7   4  28  1   
  8   5   7  ar  
  9   5  29  1   
 10   6   7  ar  
 11   6  30  1   
 12   7   8  1   
 13   8   9  1   
 14   8  31  1   
 15   8  32  1   
 16   9  10  ar  
 17   9  11  1   
 18  10  12  ar  
 19  10  13  ar  
 20  11  14  1   
 21  11  15  2   
 22  12  15  1   
 23  12  33  1   
 24  13  16  1   
 25  13  17  1   
 26  14  18  2   
 27  14  19  am  
 28  15  20  1   
 29  16  21  1   
 30  16  34  1   
 31  16  35  1   
 32  17  22  1   
 33  17  36  1   
 34  17  37  1   
 35  19  23  am  
 36  19  38  1   
 37  20  23  am  
 38  20  24  1   
 39  21  25  1   
 40  21  39  1   
 41  21  40  1   
 42  22  25  1   
 43  22  41  1   
 44  22  42  1   
 45  23  26  2   
 46  24  43  1   
 47  24  44  1   
 48  24  45  1   
 49  25  46  1   
 50  25  47  1   
@<TRIPOS>SUBSTRUCTURE
  1 ****   9 GROUP 4 **** **** 0

# MOE 2024.06 (io_trps.svl 2023.06)
