@<TRIPOS>MOLECULE
3-(4-Methoxy-phenyl)-propylamine
28 28 1 0 0 
SMALL
USER_CHARGES


@<TRIPOS>ATOM
  1 O        0.3680    -0.1690    -0.8680 O.3   1 <1>  -0.3630 
  2 C        1.6550    -0.1670    -0.4420 C.ar  1 <1>   0.0830 
  3 C       -0.6260    -0.9110    -0.1970 C.3   1 <1>   0.0400 
  4 C        2.5480     0.6150    -1.1550 C.ar  1 <1>  -0.1500 
  5 C        2.1120    -0.8950     0.6530 C.ar  1 <1>  -0.1500 
  6 C        3.8800     0.6730    -0.7900 C.ar  1 <1>  -0.1500 
  7 C        3.4460    -0.8350     1.0180 C.ar  1 <1>  -0.1500 
  8 C        4.3390    -0.0540     0.2990 C.ar  1 <1>  -0.1430 
  9 C        5.8030     0.0000     0.6930 C.3   1 <1>  -0.0170 
 10 C        6.5760    -1.0900    -0.0610 C.3   1 <1>  -0.1600 
 11 C        8.0590    -1.0710     0.2970 C.3   1 <1>   0.3430 
 12 N        8.7500    -2.1390    -0.4610 N.4   1 <1>  -0.8530 
 13 H       -1.5600    -0.7530    -0.7050 H     1 <1>   0.0800 
 14 H       -0.6970    -0.5610     0.8170 H     1 <1>   0.0800 
 15 H       -0.3650    -1.9540    -0.2300 H     1 <1>   0.0800 
 16 H        2.1870     1.1770    -1.9980 H     1 <1>   0.1500 
 17 H        1.4450    -1.5070     1.2300 H     1 <1>   0.1500 
 18 H        4.5510     1.2910    -1.3600 H     1 <1>   0.1500 
 19 H        3.7800    -1.4020     1.8680 H     1 <1>   0.1500 
 20 H        5.8910    -0.1420     1.7570 H     1 <1>   0.0800 
 21 H        6.1970     0.9740     0.4580 H     1 <1>   0.0800 
 22 H        6.4500    -0.9240    -1.1180 H     1 <1>   0.0800 
 23 H        6.1470    -2.0450     0.1900 H     1 <1>   0.0800 
 24 H        8.1780    -1.2330     1.3570 H     1 <1>   0.0800 
 25 H        8.4800    -0.1090     0.0490 H     1 <1>   0.0800 
 26 H        8.3560    -3.0590    -0.2320 H     1 <1>   0.4500 
 27 H        9.7540    -2.1590    -0.2490 H     1 <1>   0.4500 
 28 H        8.6390    -1.9950    -1.4720 H     1 <1>   0.4500 
@<TRIPOS>BOND
  1   1   2  1   
  2   1   3  1   
  3   2   4  ar  
  4   2   5  ar  
  5   3  13  1   
  6   3  14  1   
  7   3  15  1   
  8   4   6  ar  
  9   4  16  1   
 10   5   7  ar  
 11   5  17  1   
 12   6   8  ar  
 13   6  18  1   
 14   7   8  ar  
 15   7  19  1   
 16   8   9  1   
 17   9  10  1   
 18   9  20  1   
 19   9  21  1   
 20  10  11  1   
 21  10  22  1   
 22  10  23  1   
 23  11  12  1   
 24  11  24  1   
 25  11  25  1   
 26  12  26  1   
 27  12  27  1   
 28  12  28  1   
@<TRIPOS>SUBSTRUCTURE
  1 ****   8 GROUP 4 **** **** 0

# MOE 2024.06 (io_trps.svl 2023.06)
