@<TRIPOS>MOLECULE
3-Allyl-8-(2-methoxy-5-methyl-phenyl)-1-methyl-5,6,7,8-tetrahydro-1H-1,3,4b,8,9-
52 55 1 0 0 
SMALL
USER_CHARGES


@<TRIPOS>ATOM
  1 O        0.2710     0.8950    -1.1160 O.2   1 <1>  -0.5740 
  2 C        1.3830     1.1500    -0.7010 C.2   1 <1>   0.6860 
  3 N        1.6650     2.4000    -0.1630 N.am  1 <1>  -0.4250 
  4 N        2.3720     0.1750    -0.7440 N.am  1 <1>  -0.4410 
  5 C        2.8960     2.6840     0.4030 C.2   1 <1>   0.6990 
  6 C        0.6580     3.4860    -0.2810 C.3   1 <1>   0.2720 
  7 C        3.5980     0.4680    -0.1820 C.2   1 <1>   0.4210 
  8 C        2.1070    -1.1630    -1.3520 C.3   1 <1>   0.0520 
  9 O        3.1200     3.7690     0.9140 O.2   1 <1>  -0.5740 
 10 C        3.8960     1.6610     0.3760 C.2   1 <1>   0.2710 
 11 C        0.9800     4.3210    -1.5070 C.2   1 <1>  -0.2940 
 12 N        4.6890    -0.3390    -0.0850 N.pl3 1 <1>  -0.7040 
 13 N        5.2250     1.5650     0.8150 N.pl3 1 <1>  -0.7670 
 14 C        0.2600     4.3380    -2.6330 C.2   1 <1>  -0.3060 
 15 C        5.6600     0.3460     0.5120 C.cat 1 <1>   1.0690 
 16 C        6.0420     2.6150     1.4520 C.3   1 <1>   0.3480 
 17 N        6.9020    -0.0900     0.8050 N.pl3 1 <1>  -0.5800 
 18 C        7.5190     2.2920     1.2090 C.3   1 <1>  -0.1670 
 19 C        7.3640    -1.3840     0.4810 C.ar  1 <1>   0.3050 
 20 C        7.8480     0.8220     1.5080 C.3   1 <1>   0.1610 
 21 C        7.3600    -1.8670    -0.8360 C.ar  1 <1>   0.0750 
 22 C        7.8290    -2.2090     1.4970 C.ar  1 <1>  -0.1570 
 23 O        6.8910    -1.0490    -1.8240 O.3   1 <1>  -0.3680 
 24 C        7.8190    -3.1520    -1.1020 C.ar  1 <1>  -0.1570 
 25 C        8.2840    -3.4890     1.2300 C.ar  1 <1>  -0.1510 
 26 C        7.2280    -1.2840    -3.1770 C.3   1 <1>   0.0320 
 27 C        8.2770    -3.9540    -0.0720 C.ar  1 <1>  -0.1570 
 28 C        8.7920    -4.3820     2.3490 C.3   1 <1>  -0.1040 
 29 H        0.6710     4.1060     0.5990 H     1 <1>   0.0720 
 30 H       -0.3330     3.0740    -0.3690 H     1 <1>   0.0720 
 31 H        1.2840    -1.1070    -2.0450 H     1 <1>   0.0720 
 32 H        1.8590    -1.8690    -0.5790 H     1 <1>   0.0720 
 33 H        2.9720    -1.5070    -1.8900 H     1 <1>   0.0720 
 34 H        1.8670     4.9180    -1.3800 H     1 <1>   0.1430 
 35 H        4.8440    -1.2580    -0.4940 H     1 <1>   0.4450 
 36 H        0.5000     4.9400    -3.4920 H     1 <1>   0.1430 
 37 H       -0.6300     3.7510    -2.7930 H     1 <1>   0.1430 
 38 H        5.8320     2.6360     2.5090 H     1 <1>   0.0720 
 39 H        5.8010     3.5790     1.0350 H     1 <1>   0.0720 
 40 H        8.1290     2.9300     1.8250 H     1 <1>   0.0720 
 41 H        7.7680     2.5110     0.1850 H     1 <1>   0.0720 
 42 H        8.8570     0.6100     1.1910 H     1 <1>   0.0720 
 43 H        7.7840     0.6430     2.5680 H     1 <1>   0.0720 
 44 H        7.8350    -1.8520     2.5110 H     1 <1>   0.1430 
 45 H        7.8280    -3.5540    -2.0980 H     1 <1>   0.1430 
 46 H        6.8990    -0.4400    -3.7580 H     1 <1>   0.0720 
 47 H        6.7290    -2.1740    -3.5180 H     1 <1>   0.0720 
 48 H        8.2960    -1.3880    -3.2620 H     1 <1>   0.0720 
 49 H        8.6320    -4.9480    -0.2900 H     1 <1>   0.1430 
 50 H        8.4340    -4.0430     3.3050 H     1 <1>   0.0720 
 51 H        9.8670    -4.3760     2.3610 H     1 <1>   0.0720 
 52 H        8.4540    -5.3920     2.2010 H     1 <1>   0.0720 
@<TRIPOS>BOND
  1   1   2  2   
  2   2   3  am  
  3   2   4  am  
  4   3   5  am  
  5   3   6  1   
  6   4   7  1   
  7   4   8  1   
  8   5   9  2   
  9   5  10  1   
 10   6  11  1   
 11   6  29  1   
 12   6  30  1   
 13   7  10  2   
 14   7  12  1   
 15   8  31  1   
 16   8  32  1   
 17   8  33  1   
 18  10  13  1   
 19  11  14  2   
 20  11  34  1   
 21  12  15  ar  
 22  12  35  1   
 23  13  15  ar  
 24  13  16  1   
 25  14  36  1   
 26  14  37  1   
 27  15  17  ar  
 28  16  18  1   
 29  16  38  1   
 30  16  39  1   
 31  17  19  1   
 32  17  20  1   
 33  18  20  1   
 34  18  40  1   
 35  18  41  1   
 36  19  21  ar  
 37  19  22  ar  
 38  20  42  1   
 39  20  43  1   
 40  21  23  1   
 41  21  24  ar  
 42  22  25  ar  
 43  22  44  1   
 44  23  26  1   
 45  24  27  ar  
 46  24  45  1   
 47  25  27  ar  
 48  25  28  1   
 49  26  46  1   
 50  26  47  1   
 51  26  48  1   
 52  27  49  1   
 53  28  50  1   
 54  28  51  1   
 55  28  52  1   
@<TRIPOS>SUBSTRUCTURE
  1 ****  12 GROUP 4 **** **** 0

# MOE 2024.06 (io_trps.svl 2023.06)
