@<TRIPOS>MOLECULE
1-Methyl-3-propyl-1-(3-p-tolyl-[1,2,4]oxadiazol-5-ylmethyl)-urea
41 42 1 0 0 
SMALL
USER_CHARGES


@<TRIPOS>ATOM
  1 O        0.3350     0.7490    -1.2560 O.2   1 <1>  -0.5700 
  2 C        0.4900     1.7430    -0.5730 C.2   1 <1>   0.6900 
  3 N        1.4910     2.6300    -0.8550 N.am  1 <1>  -0.6600 
  4 N       -0.3210     1.9760     0.4860 N.am  1 <1>  -0.7300 
  5 C        2.5870     2.2080    -1.7880 C.3   1 <1>   0.3200 
  6 C        1.4530     4.0660    -0.4530 C.3   1 <1>   0.0600 
  7 C       -1.4260     1.1000     0.9180 C.3   1 <1>   0.1400 
  8 C        3.9630     2.7270    -1.3850 C.2   1 <1>   0.2980 
  9 C       -2.5820     1.9650     1.4200 C.3   1 <1>  -0.1600 
 10 O        4.2730     3.9620    -1.6850 O.3   1 <1>  -0.0190 
 11 N        4.8720     2.0720    -0.7850 N.2   1 <1>  -0.5650 
 12 C       -3.7630     1.1040     1.8820 C.3   1 <1>  -0.2400 
 13 N        5.4740     4.1090    -1.2260 N.2   1 <1>  -0.4100 
 14 C        5.8350     2.9950    -0.6920 C.2   1 <1>   0.4620 
 15 C        7.1170     2.7320    -0.0590 C.ar  1 <1>   0.0540 
 16 C        8.1090     3.7130     0.0040 C.ar  1 <1>  -0.1500 
 17 C        7.4160     1.4940     0.5120 C.ar  1 <1>  -0.1500 
 18 C        9.3310     3.4730     0.6040 C.ar  1 <1>  -0.1500 
 19 C        8.6370     1.2480     1.1140 C.ar  1 <1>  -0.1500 
 20 C        9.6040     2.2370     1.1650 C.ar  1 <1>  -0.1430 
 21 C       10.9450     1.9690     1.8240 C.3   1 <1>  -0.0970 
 22 H       -0.0210     2.6850     1.1490 H     1 <1>   0.3700 
 23 H        2.3550     2.5520    -2.7800 H     1 <1>   0.0800 
 24 H        2.6420     1.1340    -1.8190 H     1 <1>   0.0800 
 25 H        0.4770     4.3370    -0.0890 H     1 <1>   0.0800 
 26 H        1.6750     4.6900    -1.3020 H     1 <1>   0.0800 
 27 H        2.1810     4.2480     0.3180 H     1 <1>   0.0800 
 28 H       -1.0770     0.4490     1.7020 H     1 <1>   0.0800 
 29 H       -1.7550     0.4910     0.0910 H     1 <1>   0.0800 
 30 H       -2.9090     2.6120     0.6250 H     1 <1>   0.0800 
 31 H       -2.2470     2.5720     2.2430 H     1 <1>   0.0800 
 32 H       -4.1280     0.5010     1.0700 H     1 <1>   0.0800 
 33 H       -4.5650     1.7330     2.2270 H     1 <1>   0.0800 
 34 H       -3.4650     0.4560     2.6890 H     1 <1>   0.0800 
 35 H        7.9200     4.6820    -0.4260 H     1 <1>   0.1500 
 36 H        6.6810     0.7090     0.4850 H     1 <1>   0.1500 
 37 H       10.0710     4.2530     0.6320 H     1 <1>   0.1500 
 38 H        8.8320     0.2800     1.5420 H     1 <1>   0.1500 
 39 H       11.3480     2.8760     2.2380 H     1 <1>   0.0800 
 40 H       11.6350     1.5820     1.0970 H     1 <1>   0.0800 
 41 H       10.8370     1.2530     2.6180 H     1 <1>   0.0800 
@<TRIPOS>BOND
  1   1   2  2   
  2   2   3  am  
  3   2   4  am  
  4   3   5  1   
  5   3   6  1   
  6   4   7  1   
  7   4  22  1   
  8   5   8  1   
  9   5  23  1   
 10   5  24  1   
 11   6  25  1   
 12   6  26  1   
 13   6  27  1   
 14   7   9  1   
 15   7  28  1   
 16   7  29  1   
 17   8  10  1   
 18   8  11  2   
 19   9  12  1   
 20   9  30  1   
 21   9  31  1   
 22  10  13  1   
 23  11  14  1   
 24  12  32  1   
 25  12  33  1   
 26  12  34  1   
 27  13  14  2   
 28  14  15  1   
 29  15  16  ar  
 30  15  17  ar  
 31  16  18  ar  
 32  16  35  1   
 33  17  19  ar  
 34  17  36  1   
 35  18  20  ar  
 36  18  37  1   
 37  19  20  ar  
 38  19  38  1   
 39  20  21  1   
 40  21  39  1   
 41  21  40  1   
 42  21  41  1   
@<TRIPOS>SUBSTRUCTURE
  1 ****  11 GROUP 4 **** **** 0

# MOE 2024.06 (io_trps.svl 2023.06)
