@<TRIPOS>MOLECULE
4-(4-Ethoxy-3-methyl-phenyl)-butyric acid
33 33 1 0 0 
SMALL
USER_CHARGES


@<TRIPOS>ATOM
  1 O       -1.5100     0.2000    -1.5970 O.co2 1 <1>  -0.9000 
  2 C       -1.6700    -0.4440    -0.5560 C.2   1 <1>   0.9060 
  3 O       -0.9680    -1.4110    -0.2480 O.co2 1 <1>  -0.9000 
  4 C       -2.7700    -0.0220     0.3900 C.3   1 <1>  -0.2660 
  5 C       -4.1070    -0.7160     0.0800 C.3   1 <1>  -0.1600 
  6 C       -5.2020    -0.2800     1.0580 C.3   1 <1>  -0.0170 
  7 C       -6.5190    -0.9740     0.7460 C.ar  1 <1>  -0.1440 
  8 C       -7.4510    -0.3710    -0.0840 C.ar  1 <1>  -0.1500 
  9 C       -6.7960    -2.2190     1.2860 C.ar  1 <1>  -0.1500 
 10 C       -8.6550    -0.9940    -0.3720 C.ar  1 <1>  -0.1440 
 11 C       -7.9930    -2.8520     1.0060 C.ar  1 <1>  -0.1500 
 12 C       -8.9320    -2.2440     0.1760 C.ar  1 <1>   0.0820 
 13 C       -9.6600    -0.3100    -1.2860 C.3   1 <1>  -0.0970 
 14 O      -10.1250    -2.8180    -0.1350 O.3   1 <1>  -0.3630 
 15 C      -10.4950    -4.0770     0.3730 C.3   1 <1>   0.1200 
 16 C      -11.8810    -4.4140    -0.1660 C.3   1 <1>  -0.2400 
 17 H       -2.8760     1.0430     0.3100 H     1 <1>   0.0800 
 18 H       -2.4500    -0.2600     1.3860 H     1 <1>   0.0800 
 19 H       -3.9700    -1.7820     0.1380 H     1 <1>   0.0800 
 20 H       -4.4020    -0.4770    -0.9280 H     1 <1>   0.0800 
 21 H       -5.3320     0.7870     0.9970 H     1 <1>   0.0800 
 22 H       -4.9000    -0.5160     2.0630 H     1 <1>   0.0800 
 23 H       -7.2290     0.5910    -0.5090 H     1 <1>   0.1500 
 24 H       -6.0730    -2.6970     1.9230 H     1 <1>   0.1500 
 25 H       -8.1710    -3.8150     1.4410 H     1 <1>   0.1500 
 26 H       -9.2930     0.6420    -1.6240 H     1 <1>   0.0800 
 27 H      -10.5850    -0.1570    -0.7590 H     1 <1>   0.0800 
 28 H       -9.8500    -0.9300    -2.1430 H     1 <1>   0.0800 
 29 H      -10.5070    -4.0200     1.4480 H     1 <1>   0.0800 
 30 H       -9.7710    -4.8030     0.0430 H     1 <1>   0.0800 
 31 H      -12.5910    -3.6730     0.1550 H     1 <1>   0.0800 
 32 H      -12.1930    -5.3730     0.2050 H     1 <1>   0.0800 
 33 H      -11.8600    -4.4500    -1.2400 H     1 <1>   0.0800 
@<TRIPOS>BOND
  1   1   2  ar  
  2   2   3  ar  
  3   2   4  1   
  4   4   5  1   
  5   4  17  1   
  6   4  18  1   
  7   5   6  1   
  8   5  19  1   
  9   5  20  1   
 10   6   7  1   
 11   6  21  1   
 12   6  22  1   
 13   7   8  ar  
 14   7   9  ar  
 15   8  10  ar  
 16   8  23  1   
 17   9  11  ar  
 18   9  24  1   
 19  10  12  ar  
 20  10  13  1   
 21  11  12  ar  
 22  11  25  1   
 23  12  14  1   
 24  13  26  1   
 25  13  27  1   
 26  13  28  1   
 27  14  15  1   
 28  15  16  1   
 29  15  29  1   
 30  15  30  1   
 31  16  31  1   
 32  16  32  1   
 33  16  33  1   
@<TRIPOS>SUBSTRUCTURE
  1 ****   7 GROUP 4 **** **** 0

# MOE 2024.06 (io_trps.svl 2023.06)
