@<TRIPOS>MOLECULE
2-(5-Amino-2-isobutyl-benzoimidazol-1-yl)-ethanol
37 38 1 0 0 
SMALL
USER_CHARGES


@<TRIPOS>ATOM
  1 O       -0.8430     0.4460    -0.2310 O.3   1 <1>  -0.6800 
  2 C       -0.6760     1.7070     0.3210 C.3   1 <1>   0.1200 
  3 C       -1.4120     2.7280    -0.5560 C.3   1 <1>   0.3540 
  4 N       -1.2780     4.1010     0.0090 N.pl3 1 <1>  -0.7640 
  5 C       -0.1430     4.8900    -0.1370 C.ar  1 <1>   0.3090 
  6 C       -2.1670     4.8090     0.6980 C.cat 1 <1>   0.6560 
  7 C       -0.3970     6.0880     0.5080 C.ar  1 <1>   0.3090 
  8 C        1.0800     4.6820    -0.7730 C.ar  1 <1>  -0.1090 
  9 N       -1.6750     5.9930     1.0190 N.pl3 1 <1>  -0.7000 
 10 C       -3.5650     4.3510     1.0850 C.3   1 <1>  -0.0160 
 11 C        0.5520     7.1020     0.5470 C.ar  1 <1>  -0.1090 
 12 C        2.0220     5.6870    -0.7360 C.ar  1 <1>  -0.1500 
 13 C       -4.5960     4.5230    -0.0490 C.3   1 <1>  -0.0800 
 14 C        1.7690     6.8990    -0.0760 C.ar  1 <1>   0.1000 
 15 C       -4.7750     5.9950    -0.4470 C.3   1 <1>  -0.2400 
 16 C       -5.9490     3.9400     0.3760 C.3   1 <1>  -0.2400 
 17 N        2.7400     7.8830    -0.0680 N.pl3 1 <1>  -0.9000 
 18 H       -0.3780    -0.2400     0.2920 H     1 <1>   0.4000 
 19 H        0.3780     1.9210     0.3560 H     1 <1>   0.0800 
 20 H       -1.0860     1.6940     1.3160 H     1 <1>   0.0800 
 21 H       -2.4500     2.4540    -0.6190 H     1 <1>   0.0800 
 22 H       -0.9990     2.7110    -1.5510 H     1 <1>   0.0800 
 23 H        1.2770     3.7560    -1.2830 H     1 <1>   0.1500 
 24 H       -2.1500     6.7350     1.5370 H     1 <1>   0.4500 
 25 H       -3.8880     4.9050     1.9480 H     1 <1>   0.0800 
 26 H       -3.5180     3.3170     1.3740 H     1 <1>   0.0800 
 27 H        0.3380     8.0270     1.0470 H     1 <1>   0.1500 
 28 H        2.9730     5.5550    -1.2240 H     1 <1>   0.1500 
 29 H       -4.2590     3.9790    -0.9170 H     1 <1>   0.0800 
 30 H       -5.0960     6.5850     0.3940 H     1 <1>   0.0800 
 31 H       -5.5220     6.0800    -1.2180 H     1 <1>   0.0800 
 32 H       -3.8610     6.4080    -0.8360 H     1 <1>   0.0800 
 33 H       -6.3410     4.4590     1.2340 H     1 <1>   0.0800 
 34 H       -5.8550     2.8960     0.6200 H     1 <1>   0.0800 
 35 H       -6.6620     4.0280    -0.4260 H     1 <1>   0.0800 
 36 H        3.6990     7.6040    -0.3030 H     1 <1>   0.4000 
 37 H        2.7240     8.5740     0.6910 H     1 <1>   0.4000 
@<TRIPOS>BOND
  1   1   2  1   
  2   1  18  1   
  3   2   3  1   
  4   2  19  1   
  5   2  20  1   
  6   3   4  1   
  7   3  21  1   
  8   3  22  1   
  9   4   5  1   
 10   4   6  ar  
 11   5   7  ar  
 12   5   8  ar  
 13   6   9  ar  
 14   6  10  1   
 15   7   9  1   
 16   7  11  ar  
 17   8  12  ar  
 18   8  23  1   
 19   9  24  1   
 20  10  13  1   
 21  10  25  1   
 22  10  26  1   
 23  11  14  ar  
 24  11  27  1   
 25  12  14  ar  
 26  12  28  1   
 27  13  15  1   
 28  13  16  1   
 29  13  29  1   
 30  14  17  1   
 31  15  30  1   
 32  15  31  1   
 33  15  32  1   
 34  16  33  1   
 35  16  34  1   
 36  16  35  1   
 37  17  36  1   
 38  17  37  1   
@<TRIPOS>SUBSTRUCTURE
  1 ****   4 GROUP 4 **** **** 0

# MOE 2024.06 (io_trps.svl 2023.06)
