@<TRIPOS>MOLECULE
7-(2-Hydroxy-propyl)-1,3-dimethyl-8-pyrrolidin-1-yl-3,7-dihydro-purine-2,6-dione
44 46 1 0 0 
SMALL
USER_CHARGES


@<TRIPOS>ATOM
  1 O        0.9020     0.4320    -0.6900 O.2   1 <1>  -0.5750 
  2 C        1.9420     1.0010    -0.4290 C.2   1 <1>   0.6860 
  3 N        1.9430     2.3660    -0.1650 N.am  1 <1>  -0.4270 
  4 N        3.1320     0.2870    -0.3950 N.am  1 <1>  -0.4420 
  5 C        3.1220     3.0450     0.1180 C.2   1 <1>   0.6990 
  6 C        0.6470     3.1140    -0.2190 C.3   1 <1>   0.0510 
  7 C        4.2890     0.9690    -0.0750 C.2   1 <1>   0.4200 
  8 C        3.1530    -1.1800    -0.6760 C.3   1 <1>   0.0510 
  9 O        3.1100     4.2500     0.3020 O.2   1 <1>  -0.5750 
 10 C        4.3430     2.2920     0.1800 C.2   1 <1>   0.2690 
 11 N        5.5410     0.4550     0.0360 N.pl3 1 <1>  -0.7040 
 12 N        5.6970     2.5860     0.4570 N.pl3 1 <1>  -0.7680 
 13 C        6.3850     1.4350     0.3620 C.cat 1 <1>   1.0680 
 14 C        6.1850     3.9760     0.7210 C.3   1 <1>   0.3470 
 15 N        7.7060     1.2070     0.5410 N.pl3 1 <1>  -0.5970 
 16 C        6.8030     4.6140    -0.5420 C.3   1 <1>   0.1920 
 17 C        8.3640    -0.0900     0.2300 C.3   1 <1>   0.1590 
 18 C        8.7160     2.1530     1.0910 C.3   1 <1>   0.1590 
 19 O        7.6180     5.6520    -0.1440 O.3   1 <1>  -0.6840 
 20 C        5.7720     5.1850    -1.5150 C.3   1 <1>  -0.2480 
 21 C        9.8580     0.1950     0.2690 C.3   1 <1>  -0.1680 
 22 C        9.9930     1.3400     1.2620 C.3   1 <1>  -0.1680 
 23 H       -0.1510     2.5050     0.1700 H     1 <1>   0.0710 
 24 H        0.4220     3.3700    -1.2400 H     1 <1>   0.0710 
 25 H        0.6950     4.0160     0.3660 H     1 <1>   0.0710 
 26 H        2.2650    -1.4810    -1.2050 H     1 <1>   0.0710 
 27 H        3.2010    -1.7260     0.2500 H     1 <1>   0.0710 
 28 H        4.0020    -1.4310    -1.2870 H     1 <1>   0.0710 
 29 H        5.8080    -0.5170    -0.0770 H     1 <1>   0.4440 
 30 H        6.9160     3.9580     1.5070 H     1 <1>   0.0710 
 31 H        5.3780     4.5950     1.0710 H     1 <1>   0.0710 
 32 H        7.4300     3.9020    -1.0500 H     1 <1>   0.0710 
 33 H        8.0730    -0.4620    -0.7390 H     1 <1>   0.0710 
 34 H        8.1130    -0.8100     0.9920 H     1 <1>   0.0710 
 35 H        8.4040     2.5520     2.0410 H     1 <1>   0.0710 
 36 H        8.8910     2.9510     0.3910 H     1 <1>   0.0710 
 37 H        7.8650     6.2070    -0.9120 H     1 <1>   0.3930 
 38 H        5.1560     5.9210    -1.0260 H     1 <1>   0.0710 
 39 H        5.1330     4.4020    -1.8790 H     1 <1>   0.0710 
 40 H        6.2590     5.6340    -2.3620 H     1 <1>   0.0710 
 41 H       10.1880     0.5130    -0.7060 H     1 <1>   0.0710 
 42 H       10.4270    -0.6700     0.5630 H     1 <1>   0.0710 
 43 H       10.0380     0.9530     2.2660 H     1 <1>   0.0710 
 44 H       10.8730     1.9340     1.0830 H     1 <1>   0.0710 
@<TRIPOS>BOND
  1   1   2  2   
  2   2   3  am  
  3   2   4  am  
  4   3   5  am  
  5   3   6  1   
  6   4   7  1   
  7   4   8  1   
  8   5   9  2   
  9   5  10  1   
 10   6  23  1   
 11   6  24  1   
 12   6  25  1   
 13   7  10  2   
 14   7  11  1   
 15   8  26  1   
 16   8  27  1   
 17   8  28  1   
 18  10  12  1   
 19  11  13  ar  
 20  11  29  1   
 21  12  13  ar  
 22  12  14  1   
 23  13  15  ar  
 24  14  16  1   
 25  14  30  1   
 26  14  31  1   
 27  15  17  1   
 28  15  18  1   
 29  16  19  1   
 30  16  20  1   
 31  16  32  1   
 32  17  21  1   
 33  17  33  1   
 34  17  34  1   
 35  18  22  1   
 36  18  35  1   
 37  18  36  1   
 38  19  37  1   
 39  20  38  1   
 40  20  39  1   
 41  20  40  1   
 42  21  22  1   
 43  21  41  1   
 44  21  42  1   
 45  22  43  1   
 46  22  44  1   
@<TRIPOS>SUBSTRUCTURE
  1 ****  12 GROUP 4 **** **** 0

# MOE 2024.06 (io_trps.svl 2023.06)
