@<TRIPOS>MOLECULE
2-(4-Ethoxy-3-methoxy-phenyl)-5,7-dimethyl-1,3-diaza-tricyclo[3.3.1.1*3,7*]decan
51 54 1 0 0 
SMALL
USER_CHARGES


@<TRIPOS>ATOM
  1 O       -0.4470    -1.3050    -1.0490 O.2   1 <1>  -0.5700 
  2 C        0.6050    -1.6770    -0.6230 C.2   1 <1>   0.4480 
  3 C        1.3220    -2.9210    -1.1450 C.3   1 <1>   0.0610 
  4 C        1.3090    -1.0010     0.5540 C.3   1 <1>   0.0610 
  5 C        1.3690    -3.9070     0.0260 C.3   1 <1>   0.3430 
  6 C        2.7710    -2.5360    -1.4610 C.3   1 <1>   0.1100 
  7 C        0.6460    -3.5560    -2.3770 C.3   1 <1>  -0.2400 
  8 C        1.3350    -2.0480     1.6730 C.3   1 <1>   0.3430 
  9 C        2.7660    -0.7260     0.1520 C.3   1 <1>   0.1100 
 10 C        0.6190     0.2960     1.0250 C.3   1 <1>  -0.2400 
 11 N        2.0610    -3.2770     1.2080 N.4   1 <1>  -0.9590 
 12 N        3.4080    -1.9960    -0.2370 N.3   1 <1>  -0.8100 
 13 C        3.4720    -2.9500     0.8830 C.3   1 <1>   0.8360 
 14 C        4.2900    -4.2150     0.5720 C.ar  1 <1>  -0.1440 
 15 C        5.3430    -4.1600    -0.3330 C.ar  1 <1>  -0.1500 
 16 C        4.0370    -5.4340     1.1950 C.ar  1 <1>  -0.1500 
 17 C        6.1040    -5.2710    -0.6540 C.ar  1 <1>   0.0820 
 18 C        4.7840    -6.5580     0.8880 C.ar  1 <1>  -0.1500 
 19 O        7.0840    -5.0240    -1.5700 O.3   1 <1>  -0.3620 
 20 C        5.8170    -6.5020    -0.0430 C.ar  1 <1>   0.0820 
 21 C        8.1920    -5.8770    -1.7570 C.3   1 <1>   0.0400 
 22 O        6.5330    -7.6160    -0.3720 O.3   1 <1>  -0.3630 
 23 C        6.3470    -8.8630     0.2590 C.3   1 <1>   0.1200 
 24 C        7.3580    -9.8410    -0.3310 C.3   1 <1>  -0.2400 
 25 H        1.8980    -4.7950    -0.2820 H     1 <1>   0.0800 
 26 H        0.3630    -4.1890     0.2940 H     1 <1>   0.0800 
 27 H        3.3150    -3.3930    -1.8220 H     1 <1>   0.0800 
 28 H        2.7960    -1.7910    -2.2410 H     1 <1>   0.0800 
 29 H        0.6150    -2.8490    -3.1890 H     1 <1>   0.0800 
 30 H       -0.3680    -3.8390    -2.1500 H     1 <1>   0.0800 
 31 H        1.1820    -4.4290    -2.7070 H     1 <1>   0.0800 
 32 H        1.8260    -1.6340     2.5380 H     1 <1>   0.0800 
 33 H        0.3220    -2.2990     1.9480 H     1 <1>   0.0800 
 34 H        3.3090    -0.2790     0.9690 H     1 <1>   0.0800 
 35 H        2.7990    -0.0350    -0.6770 H     1 <1>   0.0800 
 36 H       -0.3980     0.0990     1.3190 H     1 <1>   0.0800 
 37 H        0.5940     1.0140     0.2230 H     1 <1>   0.0800 
 38 H        1.1390     0.7350     1.8580 H     1 <1>   0.0800 
 39 H        2.1070    -3.9580     1.9690 H     1 <1>   0.4500 
 40 H        3.9360    -2.4590     1.7250 H     1 <1>   0.0800 
 41 H        5.6020    -3.2330    -0.8180 H     1 <1>   0.1500 
 42 H        3.2630    -5.5460     1.9320 H     1 <1>   0.1500 
 43 H        4.5420    -7.4760     1.3890 H     1 <1>   0.1500 
 44 H        8.6150    -6.1190    -0.7990 H     1 <1>   0.0800 
 45 H        8.9170    -5.3570    -2.3580 H     1 <1>   0.0800 
 46 H        7.8660    -6.7640    -2.2690 H     1 <1>   0.0800 
 47 H        5.3420    -9.1970     0.0680 H     1 <1>   0.0800 
 48 H        6.5110    -8.7400     1.3160 H     1 <1>   0.0800 
 49 H        7.1980    -9.9440    -1.3900 H     1 <1>   0.0800 
 50 H        7.2420   -10.8060     0.1280 H     1 <1>   0.0800 
 51 H        8.3590    -9.4930    -0.1500 H     1 <1>   0.0800 
@<TRIPOS>BOND
  1   1   2  2   
  2   2   3  1   
  3   2   4  1   
  4   3   5  1   
  5   3   6  1   
  6   3   7  1   
  7   4   8  1   
  8   4   9  1   
  9   4  10  1   
 10   5  11  1   
 11   5  25  1   
 12   5  26  1   
 13   6  12  1   
 14   6  27  1   
 15   6  28  1   
 16   7  29  1   
 17   7  30  1   
 18   7  31  1   
 19   8  11  1   
 20   8  32  1   
 21   8  33  1   
 22   9  12  1   
 23   9  34  1   
 24   9  35  1   
 25  10  36  1   
 26  10  37  1   
 27  10  38  1   
 28  11  13  1   
 29  11  39  1   
 30  12  13  1   
 31  13  14  1   
 32  13  40  1   
 33  14  15  ar  
 34  14  16  ar  
 35  15  17  ar  
 36  15  41  1   
 37  16  18  ar  
 38  16  42  1   
 39  17  19  1   
 40  17  20  ar  
 41  18  20  ar  
 42  18  43  1   
 43  19  21  1   
 44  20  22  1   
 45  21  44  1   
 46  21  45  1   
 47  21  46  1   
 48  22  23  1   
 49  23  24  1   
 50  23  47  1   
 51  23  48  1   
 52  24  49  1   
 53  24  50  1   
 54  24  51  1   
@<TRIPOS>SUBSTRUCTURE
  1 ****  14 GROUP 4 **** **** 0

# MOE 2024.06 (io_trps.svl 2023.06)
