@<TRIPOS>MOLECULE
1-(4-Ethoxy-phenyl)-5-oxo-pyrrolidine-3-carboxylic acid [2-(4-fluoro-phenyl)-eth
50 52 1 0 0 
SMALL
USER_CHARGES


@<TRIPOS>ATOM
  1 F       -0.2150    -1.4630    -2.1360 F     1 <1>  -0.1900 
  2 C       -1.1300    -2.1770    -1.5370 C.ar  1 <1>   0.1900 
  3 C       -1.4110    -3.4400    -2.0190 C.ar  1 <1>  -0.1500 
  4 C       -1.7830    -1.6420    -0.4440 C.ar  1 <1>  -0.1500 
  5 C       -2.3830    -4.1920    -1.3800 C.ar  1 <1>  -0.1500 
  6 C       -2.7530    -2.4030     0.1870 C.ar  1 <1>  -0.1500 
  7 C       -3.0550    -3.6770    -0.2780 C.ar  1 <1>  -0.1430 
  8 C       -4.1230    -4.5130     0.4080 C.3   1 <1>  -0.0160 
  9 C       -5.4520    -4.3850    -0.3370 C.3   1 <1>   0.1400 
 10 N       -6.4920    -5.2020     0.3340 N.am  1 <1>  -0.7300 
 11 C       -6.8060    -6.4770    -0.0150 C.2   1 <1>   0.5690 
 12 O       -6.2080    -7.0600    -0.8850 O.2   1 <1>  -0.5700 
 13 C       -7.9180    -7.1960     0.7340 C.3   1 <1>  -0.0190 
 14 C       -8.4570    -8.4260    -0.0110 C.3   1 <1>   0.1400 
 15 C       -9.1620    -6.3380     1.0130 C.3   1 <1>  -0.0990 
 16 N       -9.8800    -8.5080     0.3830 N.am  1 <1>  -0.4770 
 17 C      -10.2870    -7.3320     0.9440 C.2   1 <1>   0.5690 
 18 C      -10.6710    -9.6230     0.0400 C.ar  1 <1>   0.1170 
 19 O      -11.3890    -7.0610     1.3500 O.2   1 <1>  -0.5700 
 20 C      -10.1940   -10.9200     0.2090 C.ar  1 <1>  -0.1500 
 21 C      -11.9480    -9.4560    -0.4850 C.ar  1 <1>  -0.1500 
 22 C      -10.9580   -12.0170    -0.1470 C.ar  1 <1>  -0.1500 
 23 C      -12.7180   -10.5480    -0.8420 C.ar  1 <1>  -0.1500 
 24 C      -12.2310   -11.8340    -0.6790 C.ar  1 <1>   0.0830 
 25 O      -13.0500   -12.8510    -1.0580 O.3   1 <1>  -0.3620 
 26 C      -12.6610   -14.1940    -0.8950 C.3   1 <1>   0.1200 
 27 C      -13.7990   -15.0790    -1.3950 C.3   1 <1>  -0.2400 
 28 H       -0.8810    -3.8230    -2.8730 H     1 <1>   0.1500 
 29 H       -1.5350    -0.6550    -0.0990 H     1 <1>   0.1500 
 30 H       -2.6140    -5.1790    -1.7440 H     1 <1>   0.1500 
 31 H       -3.2680    -1.9970     1.0400 H     1 <1>   0.1500 
 32 H       -4.2430    -4.1870     1.4260 H     1 <1>   0.0800 
 33 H       -3.8170    -5.5450     0.4160 H     1 <1>   0.0800 
 34 H       -5.3260    -4.7240    -1.3530 H     1 <1>   0.0800 
 35 H       -5.7630    -3.3550    -0.3640 H     1 <1>   0.0800 
 36 H       -6.9850    -4.7450     1.1020 H     1 <1>   0.3700 
 37 H       -7.5160    -7.5370     1.6700 H     1 <1>   0.0800 
 38 H       -7.9140    -9.3110     0.2660 H     1 <1>   0.0800 
 39 H       -8.4040    -8.2910    -1.0790 H     1 <1>   0.0800 
 40 H       -9.3170    -5.6010     0.2450 H     1 <1>   0.0800 
 41 H       -9.1250    -5.8700     1.9790 H     1 <1>   0.0800 
 42 H       -9.2190   -11.0780     0.6290 H     1 <1>   0.1500 
 43 H      -12.3430    -8.4650    -0.6150 H     1 <1>   0.1500 
 44 H      -10.5500   -12.9980    -0.0010 H     1 <1>   0.1500 
 45 H      -13.7040   -10.4090    -1.2470 H     1 <1>   0.1500 
 46 H      -12.4740   -14.3700     0.1500 H     1 <1>   0.0800 
 47 H      -11.7670   -14.3630    -1.4710 H     1 <1>   0.0800 
 48 H      -14.6910   -14.8890    -0.8250 H     1 <1>   0.0800 
 49 H      -13.5330   -16.1140    -1.2840 H     1 <1>   0.0800 
 50 H      -13.9890   -14.8820    -2.4350 H     1 <1>   0.0800 
@<TRIPOS>BOND
  1   1   2  1   
  2   2   3  ar  
  3   2   4  ar  
  4   3   5  ar  
  5   3  28  1   
  6   4   6  ar  
  7   4  29  1   
  8   5   7  ar  
  9   5  30  1   
 10   6   7  ar  
 11   6  31  1   
 12   7   8  1   
 13   8   9  1   
 14   8  32  1   
 15   8  33  1   
 16   9  10  1   
 17   9  34  1   
 18   9  35  1   
 19  10  11  am  
 20  10  36  1   
 21  11  12  2   
 22  11  13  1   
 23  13  14  1   
 24  13  15  1   
 25  13  37  1   
 26  14  16  1   
 27  14  38  1   
 28  14  39  1   
 29  15  17  1   
 30  15  40  1   
 31  15  41  1   
 32  16  17  am  
 33  16  18  1   
 34  17  19  2   
 35  18  20  ar  
 36  18  21  ar  
 37  20  22  ar  
 38  20  42  1   
 39  21  23  ar  
 40  21  43  1   
 41  22  24  ar  
 42  22  44  1   
 43  23  24  ar  
 44  23  45  1   
 45  24  25  1   
 46  25  26  1   
 47  26  27  1   
 48  26  46  1   
 49  26  47  1   
 50  27  48  1   
 51  27  49  1   
 52  27  50  1   
@<TRIPOS>SUBSTRUCTURE
  1 ****  13 GROUP 4 **** **** 0

# MOE 2024.06 (io_trps.svl 2023.06)
