@<TRIPOS>MOLECULE
6-(5-Methyl-2-oxo-imidazolidin-4-yl)-hexanoic acid (4-methoxy-3,5-dimethyl-pheny
54 55 1 0 0 
SMALL
USER_CHARGES


@<TRIPOS>ATOM
  1 O        0.2430    -3.2550     3.3410 O.2   1 <1>  -0.5700 
  2 C        0.3360    -3.5810     2.1790 C.2   1 <1>   0.6900 
  3 N        1.4930    -3.6860     1.5170 N.am  1 <1>  -0.7300 
  4 N       -0.7090    -3.7640     1.3640 N.am  1 <1>  -0.7300 
  5 C        1.2700    -3.8120     0.0660 C.3   1 <1>   0.2200 
  6 C       -0.2800    -3.8010    -0.0420 C.3   1 <1>   0.2200 
  7 C        1.8950    -5.1150    -0.4530 C.3   1 <1>  -0.1600 
  8 C       -0.8250    -2.5620    -0.7500 C.3   1 <1>  -0.2400 
  9 C        3.4300    -5.1270    -0.3500 C.3   1 <1>  -0.1600 
 10 C        4.0150    -6.4040    -0.9670 C.3   1 <1>  -0.1600 
 11 C        5.5480    -6.4090    -0.8920 C.3   1 <1>  -0.1600 
 12 C        6.1370    -7.6720    -1.5420 C.3   1 <1>  -0.0990 
 13 C        7.6550    -7.6750    -1.5130 C.2   1 <1>   0.5690 
 14 O        8.2450    -7.3220    -2.5040 O.2   1 <1>  -0.5700 
 15 N        8.2640    -8.0880    -0.3610 N.am  1 <1>  -0.5470 
 16 C        9.6230    -8.1790    -0.0160 C.ar  1 <1>   0.1170 
 17 C        9.9890    -9.0360     1.0150 C.ar  1 <1>  -0.1500 
 18 C       10.6150    -7.4340    -0.6440 C.ar  1 <1>  -0.1500 
 19 C       11.3100    -9.1650     1.4090 C.ar  1 <1>  -0.1430 
 20 C       11.9430    -7.5440    -0.2690 C.ar  1 <1>  -0.1430 
 21 C       12.2890    -8.4280     0.7500 C.ar  1 <1>   0.0820 
 22 C       11.6670   -10.1030     2.5540 C.3   1 <1>  -0.0970 
 23 C       12.9880    -6.6930    -0.9760 C.3   1 <1>  -0.0970 
 24 O       13.5880    -8.5630     1.1140 O.3   1 <1>  -0.3620 
 25 C       14.3200    -9.5330     0.4010 C.3   1 <1>   0.0400 
 26 H        2.3390    -3.2810     1.9120 H     1 <1>   0.3700 
 27 H       -1.6150    -3.3920     1.6400 H     1 <1>   0.3700 
 28 H        1.6920    -2.9640    -0.4480 H     1 <1>   0.0800 
 29 H       -0.6450    -4.6980    -0.5140 H     1 <1>   0.0800 
 30 H        1.6170    -5.2350    -1.4860 H     1 <1>   0.0800 
 31 H        1.4860    -5.9460     0.0950 H     1 <1>   0.0800 
 32 H       -0.4870    -1.6660    -0.2590 H     1 <1>   0.0800 
 33 H       -1.9000    -2.5810    -0.7540 H     1 <1>   0.0800 
 34 H       -0.4850    -2.5440    -1.7700 H     1 <1>   0.0800 
 35 H        3.7220    -5.0660     0.6850 H     1 <1>   0.0800 
 36 H        3.8300    -4.2680    -0.8620 H     1 <1>   0.0800 
 37 H        3.7100    -6.4740    -1.9980 H     1 <1>   0.0800 
 38 H        3.6260    -7.2630    -0.4450 H     1 <1>   0.0800 
 39 H        5.8600    -6.3520     0.1370 H     1 <1>   0.0800 
 40 H        5.9350    -5.5430    -1.4030 H     1 <1>   0.0800 
 41 H        5.8220    -7.7250    -2.5690 H     1 <1>   0.0800 
 42 H        5.7720    -8.5500    -1.0430 H     1 <1>   0.0800 
 43 H        7.6290    -8.4080     0.3650 H     1 <1>   0.3700 
 44 H        9.2310    -9.6090     1.5120 H     1 <1>   0.1500 
 45 H       10.3450    -6.7560    -1.4310 H     1 <1>   0.1500 
 46 H       10.7960   -10.3560     3.1310 H     1 <1>   0.0800 
 47 H       12.3780    -9.6310     3.2090 H     1 <1>   0.0800 
 48 H       12.0990   -11.0060     2.1660 H     1 <1>   0.0800 
 49 H       12.5310    -5.8410    -1.4460 H     1 <1>   0.0800 
 50 H       13.4870    -7.2750    -1.7280 H     1 <1>   0.0800 
 51 H       13.7160    -6.3350    -0.2700 H     1 <1>   0.0800 
 52 H       15.3240    -9.5450     0.7830 H     1 <1>   0.0800 
 53 H       14.3240    -9.2720    -0.6420 H     1 <1>   0.0800 
 54 H       13.8570   -10.4930     0.5420 H     1 <1>   0.0800 
@<TRIPOS>BOND
  1   1   2  2   
  2   2   3  am  
  3   2   4  am  
  4   3   5  1   
  5   3  26  1   
  6   4   6  1   
  7   4  27  1   
  8   5   6  1   
  9   5   7  1   
 10   5  28  1   
 11   6   8  1   
 12   6  29  1   
 13   7   9  1   
 14   7  30  1   
 15   7  31  1   
 16   8  32  1   
 17   8  33  1   
 18   8  34  1   
 19   9  10  1   
 20   9  35  1   
 21   9  36  1   
 22  10  11  1   
 23  10  37  1   
 24  10  38  1   
 25  11  12  1   
 26  11  39  1   
 27  11  40  1   
 28  12  13  1   
 29  12  41  1   
 30  12  42  1   
 31  13  14  2   
 32  13  15  am  
 33  15  16  1   
 34  15  43  1   
 35  16  17  ar  
 36  16  18  ar  
 37  17  19  ar  
 38  17  44  1   
 39  18  20  ar  
 40  18  45  1   
 41  19  21  ar  
 42  19  22  1   
 43  20  21  ar  
 44  20  23  1   
 45  21  24  1   
 46  22  46  1   
 47  22  47  1   
 48  22  48  1   
 49  23  49  1   
 50  23  50  1   
 51  23  51  1   
 52  24  25  1   
 53  25  52  1   
 54  25  53  1   
 55  25  54  1   
@<TRIPOS>SUBSTRUCTURE
  1 ****  11 GROUP 4 **** **** 0

# MOE 2024.06 (io_trps.svl 2023.06)
