@<TRIPOS>MOLECULE
N-Cyclohexyl-N-[3-(4-methoxy-phenyl)-[1,2,4]oxadiazol-5-ylmethyl]-benzenesulfona
55 58 1 0 0 
SMALL
USER_CHARGES


@<TRIPOS>ATOM
  1 S        1.0070    -0.6430    -1.1160 S.o2  1 <1>   1.4470 
  2 O        1.8550     0.0890    -2.0280 O.2   1 <1>  -0.6500 
  3 O        0.9150    -2.0790    -1.2750 O.2   1 <1>  -0.6500 
  4 N        1.5730    -0.4080     0.4690 N.am  1 <1>  -0.8490 
  5 C       -0.6810     0.0240    -1.1330 C.ar  1 <1>  -0.0090 
  6 C        1.6910     0.9440     1.0520 C.3   1 <1>   0.2760 
  7 C        2.7510    -1.2520     0.7570 C.3   1 <1>   0.3760 
  8 C       -1.0030     1.1620    -1.8650 C.ar  1 <1>  -0.1500 
  9 C       -1.6940    -0.5840    -0.3990 C.ar  1 <1>  -0.1500 
 10 C        0.3880     1.3240     1.7670 C.3   1 <1>  -0.1600 
 11 C        2.1290     2.0660     0.0960 C.3   1 <1>  -0.1600 
 12 C        4.0670    -0.7530     0.1640 C.2   1 <1>   0.2980 
 13 C       -2.2860     1.6820    -1.8560 C.ar  1 <1>  -0.1500 
 14 C       -2.9800    -0.0710    -0.3850 C.ar  1 <1>  -0.1500 
 15 C        0.5500     2.6460     2.5340 C.3   1 <1>  -0.1600 
 16 C        2.3070     3.3880     0.8570 C.3   1 <1>  -0.1600 
 17 O        4.4090    -1.1440    -1.0350 O.3   1 <1>  -0.0190 
 18 N        4.8980     0.0140     0.7450 N.2   1 <1>  -0.5650 
 19 C       -3.2760     1.0650    -1.1140 C.ar  1 <1>  -0.1500 
 20 C        1.0220     3.7720     1.6030 C.3   1 <1>  -0.1600 
 21 N        5.5520    -0.5670    -1.2400 N.2   1 <1>  -0.4100 
 22 C        5.8390     0.1280    -0.1980 C.2   1 <1>   0.4620 
 23 C        7.0220     0.9530    -0.0280 C.ar  1 <1>   0.0540 
 24 C        7.2590     1.6670     1.1500 C.ar  1 <1>  -0.1500 
 25 C        7.9740     1.0720    -1.0430 C.ar  1 <1>  -0.1500 
 26 C        8.3840     2.4540     1.3040 C.ar  1 <1>  -0.1500 
 27 C        9.1030     1.8570    -0.8970 C.ar  1 <1>  -0.1500 
 28 C        9.3160     2.5580     0.2850 C.ar  1 <1>   0.0820 
 29 O       10.3910     3.3490     0.5140 O.3   1 <1>  -0.3620 
 30 C       11.4010     3.5160    -0.4550 C.3   1 <1>   0.0400 
 31 H        2.4390     0.9010     1.8270 H     1 <1>   0.0800 
 32 H        2.5820    -2.2620     0.4280 H     1 <1>   0.0800 
 33 H        2.8750    -1.2990     1.8240 H     1 <1>   0.0800 
 34 H       -0.2410     1.6490    -2.4500 H     1 <1>   0.1500 
 35 H       -1.4690    -1.4710     0.1700 H     1 <1>   0.1500 
 36 H        0.1150     0.5460     2.4570 H     1 <1>   0.0800 
 37 H       -0.4070     1.4480     1.0570 H     1 <1>   0.0800 
 38 H        1.3870     2.2230    -0.6640 H     1 <1>   0.0800 
 39 H        3.0590     1.8120    -0.3800 H     1 <1>   0.0800 
 40 H       -2.5140     2.5650    -2.4290 H     1 <1>   0.1500 
 41 H       -3.7480    -0.5580     0.1910 H     1 <1>   0.1500 
 42 H        1.2670     2.5160     3.3270 H     1 <1>   0.0800 
 43 H       -0.3890     2.9200     2.9820 H     1 <1>   0.0800 
 44 H        2.5700     4.1690     0.1640 H     1 <1>   0.0800 
 45 H        3.1170     3.2890     1.5610 H     1 <1>   0.0800 
 46 H       -4.2750     1.4670    -1.1060 H     1 <1>   0.1500 
 47 H        1.1920     4.6670     2.1770 H     1 <1>   0.0800 
 48 H        0.2470     3.9860     0.8860 H     1 <1>   0.0800 
 49 H        6.5520     1.6050     1.9580 H     1 <1>   0.1500 
 50 H        7.8250     0.5370    -1.9660 H     1 <1>   0.1500 
 51 H        8.5500     2.9960     2.2180 H     1 <1>   0.1500 
 52 H        9.8020     1.9120    -1.7100 H     1 <1>   0.1500 
 53 H       12.1450     4.1790    -0.0520 H     1 <1>   0.0800 
 54 H       10.9680     3.9470    -1.3400 H     1 <1>   0.0800 
 55 H       11.8420     2.5580    -0.6680 H     1 <1>   0.0800 
@<TRIPOS>BOND
  1   1   2  2   
  2   1   3  2   
  3   1   4  am  
  4   1   5  1   
  5   4   6  1   
  6   4   7  1   
  7   5   8  ar  
  8   5   9  ar  
  9   6  10  1   
 10   6  11  1   
 11   6  31  1   
 12   7  12  1   
 13   7  32  1   
 14   7  33  1   
 15   8  13  ar  
 16   8  34  1   
 17   9  14  ar  
 18   9  35  1   
 19  10  15  1   
 20  10  36  1   
 21  10  37  1   
 22  11  16  1   
 23  11  38  1   
 24  11  39  1   
 25  12  17  1   
 26  12  18  2   
 27  13  19  ar  
 28  13  40  1   
 29  14  19  ar  
 30  14  41  1   
 31  15  20  1   
 32  15  42  1   
 33  15  43  1   
 34  16  20  1   
 35  16  44  1   
 36  16  45  1   
 37  17  21  1   
 38  18  22  1   
 39  19  46  1   
 40  20  47  1   
 41  20  48  1   
 42  21  22  2   
 43  22  23  1   
 44  23  24  ar  
 45  23  25  ar  
 46  24  26  ar  
 47  24  49  1   
 48  25  27  ar  
 49  25  50  1   
 50  26  28  ar  
 51  26  51  1   
 52  27  28  ar  
 53  27  52  1   
 54  28  29  1   
 55  29  30  1   
 56  30  53  1   
 57  30  54  1   
 58  30  55  1   
@<TRIPOS>SUBSTRUCTURE
  1 ****  11 GROUP 4 **** **** 0

# MOE 2024.06 (io_trps.svl 2023.06)
