@<TRIPOS>MOLECULE
N-(6,7,8,9-Tetrahydro-dibenzofuran-2-yl)-succinamic acid methyl ester
41 43 1 0 0 
SMALL
USER_CHARGES


@<TRIPOS>ATOM
  1 O       -0.1200    -2.1600     1.0300 O.2   1 <1>  -0.5700 
  2 C       -0.4720    -1.8780    -0.0840 C.2   1 <1>   0.6590 
  3 O        0.4330    -1.6850    -1.0380 O.3   1 <1>  -0.4300 
  4 C       -1.9500    -1.7390    -0.4270 C.3   1 <1>  -0.0990 
  5 C        0.1530    -1.3510    -2.3820 C.3   1 <1>   0.0400 
  6 C       -2.8830    -1.9820     0.7790 C.3   1 <1>  -0.0990 
  7 C       -4.3590    -1.8630     0.4440 C.2   1 <1>   0.5690 
  8 O       -4.6850    -1.5180    -0.6660 O.2   1 <1>  -0.5700 
  9 N       -5.2410    -2.1680     1.4410 N.am  1 <1>  -0.5470 
 10 C       -6.6480    -2.1600     1.4760 C.ar  1 <1>   0.1170 
 11 C       -7.4290    -1.4990     0.5390 C.ar  1 <1>  -0.1500 
 12 C       -7.2770    -2.8490     2.5260 C.ar  1 <1>  -0.1500 
 13 C       -8.8180    -1.5300     0.6460 C.ar  1 <1>   0.0000 
 14 C       -8.6520    -2.8840     2.6430 C.ar  1 <1>  -0.1500 
 15 C       -9.4100    -2.2180     1.6910 C.ar  1 <1>   0.1400 
 16 C       -9.9030    -1.0030    -0.0840 C.2   1 <1>  -0.1810 
 17 O      -10.7440    -2.1310     1.6220 O.3   1 <1>  -0.2800 
 18 C      -11.0170    -1.4030     0.5460 C.2   1 <1>  -0.0400 
 19 C       -9.8930    -0.1520    -1.3370 C.3   1 <1>   0.0210 
 20 C      -12.4360    -1.0890     0.1280 C.3   1 <1>   0.0200 
 21 C      -11.2840     0.4840    -1.5450 C.3   1 <1>  -0.1600 
 22 C      -12.4360    -0.5190    -1.3060 C.3   1 <1>  -0.1600 
 23 H       -2.1910    -2.4460    -1.2000 H     1 <1>   0.0800 
 24 H       -2.1230    -0.7480    -0.8060 H     1 <1>   0.0800 
 25 H        1.0880    -1.2640    -2.9060 H     1 <1>   0.0800 
 26 H       -0.3680    -0.4090    -2.4120 H     1 <1>   0.0800 
 27 H       -0.4400    -2.1320    -2.8250 H     1 <1>   0.0800 
 28 H       -2.6520    -1.2700     1.5510 H     1 <1>   0.0800 
 29 H       -2.7010    -2.9680     1.1680 H     1 <1>   0.0800 
 30 H       -4.8090    -2.4830     2.3070 H     1 <1>   0.3700 
 31 H       -6.9920    -0.9550    -0.2750 H     1 <1>   0.1500 
 32 H       -6.6760    -3.3620     3.2530 H     1 <1>   0.1500 
 33 H       -9.1470    -3.4080     3.4400 H     1 <1>   0.1500 
 34 H       -9.6440    -0.7770    -2.1760 H     1 <1>   0.0800 
 35 H       -9.1470     0.6180    -1.2520 H     1 <1>   0.0800 
 36 H      -12.8450    -0.3710     0.8160 H     1 <1>   0.0800 
 37 H      -13.0330    -1.9820     0.1690 H     1 <1>   0.0800 
 38 H      -11.3470     0.8820    -2.5420 H     1 <1>   0.0800 
 39 H      -11.3930     1.3040    -0.8560 H     1 <1>   0.0800 
 40 H      -13.3810    -0.0440    -1.5000 H     1 <1>   0.0800 
 41 H      -12.3280    -1.3350    -2.0000 H     1 <1>   0.0800 
@<TRIPOS>BOND
  1   1   2  2   
  2   2   3  1   
  3   2   4  1   
  4   3   5  1   
  5   4   6  1   
  6   4  23  1   
  7   4  24  1   
  8   5  25  1   
  9   5  26  1   
 10   5  27  1   
 11   6   7  1   
 12   6  28  1   
 13   6  29  1   
 14   7   8  2   
 15   7   9  am  
 16   9  10  1   
 17   9  30  1   
 18  10  11  ar  
 19  10  12  ar  
 20  11  13  ar  
 21  11  31  1   
 22  12  14  ar  
 23  12  32  1   
 24  13  15  ar  
 25  13  16  1   
 26  14  15  ar  
 27  14  33  1   
 28  15  17  1   
 29  16  18  2   
 30  16  19  1   
 31  17  18  1   
 32  18  20  1   
 33  19  21  1   
 34  19  34  1   
 35  19  35  1   
 36  20  22  1   
 37  20  36  1   
 38  20  37  1   
 39  21  22  1   
 40  21  38  1   
 41  21  39  1   
 42  22  40  1   
 43  22  41  1   
@<TRIPOS>SUBSTRUCTURE
  1 ****  11 GROUP 4 **** **** 0

# MOE 2024.06 (io_trps.svl 2023.06)
