@<TRIPOS>MOLECULE
1-[3-(3,4-Dimethoxy-phenyl)-[1,2,4]oxadiazol-5-ylmethyl]-1-isopropyl-3-p-tolyl-u
56 58 1 0 0 
SMALL
USER_CHARGES


@<TRIPOS>ATOM
  1 O        0.2130    -0.4690    -0.4000 O.2   1 <1>  -0.5700 
  2 C        0.4010     0.6310     0.0830 C.2   1 <1>   0.6900 
  3 N        1.6260     0.9500     0.6060 N.am  1 <1>  -0.6600 
  4 N       -0.5830     1.5780     0.0890 N.am  1 <1>  -0.5470 
  5 C        1.7650     1.9440     1.7130 C.3   1 <1>   0.2200 
  6 C        2.8200     0.1330     0.1840 C.3   1 <1>   0.3200 
  7 C       -1.9410     1.5140    -0.2480 C.ar  1 <1>   0.1170 
  8 C        2.2480     3.2880     1.1660 C.3   1 <1>  -0.2400 
  9 C        2.6770     1.4420     2.8350 C.3   1 <1>  -0.2400 
 10 C        3.9350     0.9730    -0.4220 C.2   1 <1>   0.2980 
 11 C       -2.6730     0.3310    -0.2230 C.ar  1 <1>  -0.1500 
 12 C       -2.5990     2.6860    -0.6020 C.ar  1 <1>  -0.1500 
 13 O        3.6830     1.6540    -1.5090 O.3   1 <1>  -0.0190 
 14 N        5.1180     1.0860     0.0280 N.2   1 <1>  -0.5650 
 15 C       -4.0170     0.3210    -0.5480 C.ar  1 <1>  -0.1500 
 16 C       -3.9440     2.6790    -0.9260 C.ar  1 <1>  -0.1500 
 17 N        4.8000     2.2590    -1.7690 N.2   1 <1>  -0.4100 
 18 C        5.6520     1.9250    -0.8650 C.2   1 <1>   0.4620 
 19 C       -4.6620     1.4940    -0.9030 C.ar  1 <1>  -0.1440 
 20 C        7.0290     2.3850    -0.7870 C.ar  1 <1>   0.0540 
 21 C       -6.1370     1.4800    -1.2580 C.3   1 <1>  -0.0970 
 22 C        7.8880     1.9720     0.2300 C.ar  1 <1>  -0.1500 
 23 C        7.5520     3.2650    -1.7350 C.ar  1 <1>  -0.1500 
 24 C        9.2010     2.4000     0.3130 C.ar  1 <1>   0.0820 
 25 C        8.8570     3.7150    -1.6670 C.ar  1 <1>  -0.1500 
 26 O        9.9080     1.8910     1.3610 O.3   1 <1>  -0.3620 
 27 C        9.7020     3.3000    -0.6410 C.ar  1 <1>   0.0820 
 28 C       11.2800     1.5910     1.2320 C.3   1 <1>   0.0400 
 29 O       10.9810     3.7620    -0.5420 O.3   1 <1>  -0.3630 
 30 C       11.4760     4.7930    -1.3680 C.3   1 <1>   0.0400 
 31 H       -0.2230     2.5080     0.2690 H     1 <1>   0.3700 
 32 H        0.7930     2.0960     2.1550 H     1 <1>   0.0800 
 33 H        2.5380    -0.5950    -0.5550 H     1 <1>   0.0800 
 34 H        3.2020    -0.4100     1.0280 H     1 <1>   0.0800 
 35 H        3.2770     3.2380     0.8640 H     1 <1>   0.0800 
 36 H        2.1690     4.0380     1.9320 H     1 <1>   0.0800 
 37 H        1.6500     3.5960     0.3280 H     1 <1>   0.0800 
 38 H        3.7010     1.3770     2.5120 H     1 <1>   0.0800 
 39 H        2.3430     0.4810     3.1830 H     1 <1>   0.0800 
 40 H        2.6380     2.1280     3.6620 H     1 <1>   0.0800 
 41 H       -2.1930    -0.5890     0.0530 H     1 <1>   0.1500 
 42 H       -2.0580     3.6130    -0.6290 H     1 <1>   0.1500 
 43 H       -4.5590    -0.6080    -0.5220 H     1 <1>   0.1500 
 44 H       -4.4320     3.5980    -1.1980 H     1 <1>   0.1500 
 45 H       -6.4040     0.5430    -1.7130 H     1 <1>   0.0800 
 46 H       -6.3650     2.2700    -1.9510 H     1 <1>   0.0800 
 47 H       -6.7260     1.6150    -0.3690 H     1 <1>   0.0800 
 48 H        7.5300     1.2930     0.9820 H     1 <1>   0.1500 
 49 H        6.9230     3.6040    -2.5400 H     1 <1>   0.1500 
 50 H        9.1940     4.3930    -2.4280 H     1 <1>   0.1500 
 51 H       11.5380     0.8710     1.9880 H     1 <1>   0.0800 
 52 H       11.8480     2.4920     1.3810 H     1 <1>   0.0800 
 53 H       11.4620     1.1820     0.2540 H     1 <1>   0.0800 
 54 H       12.4750     5.0260    -1.0480 H     1 <1>   0.0800 
 55 H       10.8470     5.6600    -1.2600 H     1 <1>   0.0800 
 56 H       11.4900     4.4490    -2.3870 H     1 <1>   0.0800 
@<TRIPOS>BOND
  1   1   2  2   
  2   2   3  am  
  3   2   4  am  
  4   3   5  1   
  5   3   6  1   
  6   4   7  1   
  7   4  31  1   
  8   5   8  1   
  9   5   9  1   
 10   5  32  1   
 11   6  10  1   
 12   6  33  1   
 13   6  34  1   
 14   7  11  ar  
 15   7  12  ar  
 16   8  35  1   
 17   8  36  1   
 18   8  37  1   
 19   9  38  1   
 20   9  39  1   
 21   9  40  1   
 22  10  13  1   
 23  10  14  2   
 24  11  15  ar  
 25  11  41  1   
 26  12  16  ar  
 27  12  42  1   
 28  13  17  1   
 29  14  18  1   
 30  15  19  ar  
 31  15  43  1   
 32  16  19  ar  
 33  16  44  1   
 34  17  18  2   
 35  18  20  1   
 36  19  21  1   
 37  20  22  ar  
 38  20  23  ar  
 39  21  45  1   
 40  21  46  1   
 41  21  47  1   
 42  22  24  ar  
 43  22  48  1   
 44  23  25  ar  
 45  23  49  1   
 46  24  26  1   
 47  24  27  ar  
 48  25  27  ar  
 49  25  50  1   
 50  26  28  1   
 51  27  29  1   
 52  28  51  1   
 53  28  52  1   
 54  28  53  1   
 55  29  30  1   
 56  30  54  1   
 57  30  55  1   
 58  30  56  1   
@<TRIPOS>SUBSTRUCTURE
  1 ****  10 GROUP 4 **** **** 0

# MOE 2024.06 (io_trps.svl 2023.06)
