@<TRIPOS>MOLECULE
Morpholine-4-carboxylic acid isopropyl-(3-phenyl-[1,2,4]oxadiazol-5-ylmethyl)-am
46 48 1 0 0 
SMALL
USER_CHARGES


@<TRIPOS>ATOM
  1 O        0.3430     0.2860    -0.6400 O.2   1 <1>  -0.5700 
  2 C        0.6140     1.4700    -0.5550 C.2   1 <1>   0.6900 
  3 N       -0.1080     2.2810     0.2770 N.am  1 <1>  -0.6600 
  4 N        1.6490     1.9740    -1.2870 N.am  1 <1>  -0.6600 
  5 C       -1.4210     1.8420     0.8220 C.3   1 <1>   0.1400 
  6 C        0.5260     3.3620     1.0830 C.3   1 <1>   0.1400 
  7 C        1.4450     3.1480    -2.1700 C.3   1 <1>   0.2200 
  8 C        2.8950     1.1580    -1.4060 C.3   1 <1>   0.3200 
  9 C       -2.3210     3.0580     1.1010 C.3   1 <1>   0.1200 
 10 C       -0.4770     4.4980     1.3400 C.3   1 <1>   0.1200 
 11 C        1.1730     2.6760    -3.5980 C.3   1 <1>  -0.2400 
 12 C        2.6390     4.1030    -2.1170 C.3   1 <1>  -0.2400 
 13 C        3.9460     1.6290    -0.4100 C.2   1 <1>   0.2980 
 14 O       -1.6590     3.9980     1.9020 O.3   1 <1>  -0.5600 
 15 O        3.6420     1.6290     0.8610 O.3   1 <1>  -0.0190 
 16 N        5.1130     2.0450    -0.6910 N.2   1 <1>  -0.5650 
 17 N        4.7010     2.0980     1.4400 N.2   1 <1>  -0.4100 
 18 C        5.5750     2.3440     0.5290 C.2   1 <1>   0.4620 
 19 C        6.9050     2.8870     0.7540 C.ar  1 <1>   0.0540 
 20 C        7.7930     3.1190    -0.2990 C.ar  1 <1>  -0.1500 
 21 C        7.3480     3.2030     2.0400 C.ar  1 <1>  -0.1500 
 22 C        9.0550     3.6400    -0.0810 C.ar  1 <1>  -0.1500 
 23 C        8.6100     3.7230     2.2650 C.ar  1 <1>  -0.1500 
 24 C        9.4670     3.9440     1.2030 C.ar  1 <1>  -0.1500 
 25 H       -1.2620     1.2950     1.7350 H     1 <1>   0.0800 
 26 H       -1.9080     1.1870     0.1200 H     1 <1>   0.0800 
 27 H        1.3940     3.7510     0.5850 H     1 <1>   0.0800 
 28 H        0.8460     2.9550     2.0270 H     1 <1>   0.0800 
 29 H        0.5730     3.6830    -1.8290 H     1 <1>   0.0800 
 30 H        3.2910     1.2280    -2.4010 H     1 <1>   0.0800 
 31 H        2.6830     0.1220    -1.2110 H     1 <1>   0.0800 
 32 H       -3.2090     2.7490     1.6230 H     1 <1>   0.0800 
 33 H       -2.6080     3.5320     0.1790 H     1 <1>   0.0800 
 34 H       -0.7200     5.0030     0.4210 H     1 <1>   0.0800 
 35 H       -0.0620     5.2110     2.0290 H     1 <1>   0.0800 
 36 H        2.0330     2.1920    -4.0210 H     1 <1>   0.0800 
 37 H        0.9230     3.5190    -4.2170 H     1 <1>   0.0800 
 38 H        0.3410     1.9950    -3.6060 H     1 <1>   0.0800 
 39 H        3.5150     3.6590    -2.5560 H     1 <1>   0.0800 
 40 H        2.4110     4.9960    -2.6690 H     1 <1>   0.0800 
 41 H        2.8550     4.3810    -1.1020 H     1 <1>   0.0800 
 42 H        7.4900     2.8890    -1.3060 H     1 <1>   0.1500 
 43 H        6.6940     3.0380     2.8790 H     1 <1>   0.1500 
 44 H        9.7190     3.8090    -0.9120 H     1 <1>   0.1500 
 45 H        8.9250     3.9580     3.2670 H     1 <1>   0.1500 
 46 H       10.4490     4.3490     1.3750 H     1 <1>   0.1500 
@<TRIPOS>BOND
  1   1   2  2   
  2   2   3  am  
  3   2   4  am  
  4   3   5  1   
  5   3   6  1   
  6   4   7  1   
  7   4   8  1   
  8   5   9  1   
  9   5  25  1   
 10   5  26  1   
 11   6  10  1   
 12   6  27  1   
 13   6  28  1   
 14   7  11  1   
 15   7  12  1   
 16   7  29  1   
 17   8  13  1   
 18   8  30  1   
 19   8  31  1   
 20   9  14  1   
 21   9  32  1   
 22   9  33  1   
 23  10  14  1   
 24  10  34  1   
 25  10  35  1   
 26  11  36  1   
 27  11  37  1   
 28  11  38  1   
 29  12  39  1   
 30  12  40  1   
 31  12  41  1   
 32  13  15  1   
 33  13  16  2   
 34  15  17  1   
 35  16  18  1   
 36  17  18  2   
 37  18  19  1   
 38  19  20  ar  
 39  19  21  ar  
 40  20  22  ar  
 41  20  42  1   
 42  21  23  ar  
 43  21  43  1   
 44  22  24  ar  
 45  22  44  1   
 46  23  24  ar  
 47  23  45  1   
 48  24  46  1   
@<TRIPOS>SUBSTRUCTURE
  1 ****  15 GROUP 4 **** **** 0

# MOE 2024.06 (io_trps.svl 2023.06)
