@<TRIPOS>MOLECULE
1-[3-(3,4-Dimethoxy-phenyl)-[1,2,4]oxadiazol-5-ylmethyl]-1-isopropyl-3-propyl-ur
52 53 1 0 0 
SMALL
USER_CHARGES


@<TRIPOS>ATOM
  1 O        0.2210     0.7240    -0.5320 O.2   1 <1>  -0.5700 
  2 C        0.5690     1.8110    -0.1110 C.2   1 <1>   0.6900 
  3 N        1.8060     1.9710     0.4610 N.am  1 <1>  -0.6600 
  4 N       -0.2720     2.8650    -0.2240 N.am  1 <1>  -0.7300 
  5 C        2.2850     3.1350     1.2620 C.3   1 <1>   0.2200 
  6 C        2.8040     0.8570     0.3440 C.3   1 <1>   0.3200 
  7 C       -1.6290     2.8380    -0.8010 C.3   1 <1>   0.1400 
  8 C        1.3470     3.4320     2.4340 C.3   1 <1>  -0.2400 
  9 C        2.5190     4.3570     0.3720 C.3   1 <1>  -0.2400 
 10 C        4.0660     1.2990    -0.3830 C.2   1 <1>   0.2980 
 11 C       -2.5790     3.5880     0.1320 C.3   1 <1>  -0.1600 
 12 O        3.9870     1.5820    -1.6570 O.3   1 <1>  -0.0190 
 13 N        5.2180     1.4360     0.1350 N.2   1 <1>  -0.5650 
 14 C       -4.0100     3.5950    -0.4170 C.3   1 <1>  -0.2400 
 15 N        5.1930     1.9330    -1.9770 N.2   1 <1>  -0.4100 
 16 C        5.9250     1.8480    -0.9230 C.2   1 <1>   0.4620 
 17 C        7.3430     2.1580    -0.8490 C.ar  1 <1>   0.0540 
 18 C        8.0680     2.0040     0.3350 C.ar  1 <1>  -0.1500 
 19 C        8.0410     2.6200    -1.9680 C.ar  1 <1>  -0.1500 
 20 C        9.4180     2.2950     0.4060 C.ar  1 <1>   0.0830 
 21 C        9.3880     2.9310    -1.9070 C.ar  1 <1>  -0.1500 
 22 O       10.0430     2.0770     1.5890 O.3   1 <1>  -0.3630 
 23 C       10.0840     2.7900    -0.7200 C.ar  1 <1>   0.0830 
 24 C       11.0020     1.0420     1.6050 C.3   1 <1>   0.0400 
 25 O       11.3900     3.1460    -0.7150 O.3   1 <1>  -0.3630 
 26 C       11.7500     4.2270     0.1190 C.3   1 <1>   0.0400 
 27 H        0.0780     3.7670     0.0840 H     1 <1>   0.3700 
 28 H        3.2390     2.8760     1.6940 H     1 <1>   0.0800 
 29 H        2.3960     0.0130    -0.1820 H     1 <1>   0.0800 
 30 H        3.0680     0.5230     1.3320 H     1 <1>   0.0800 
 31 H       -1.9590     1.8180    -0.9200 H     1 <1>   0.0800 
 32 H       -1.6100     3.3050    -1.7710 H     1 <1>   0.0800 
 33 H        0.4020     3.8210     2.1060 H     1 <1>   0.0800 
 34 H        1.8000     4.1640     3.0790 H     1 <1>   0.0800 
 35 H        1.1810     2.5370     3.0060 H     1 <1>   0.0800 
 36 H        1.6040     4.7440    -0.0330 H     1 <1>   0.0800 
 37 H        3.1810     4.1030    -0.4370 H     1 <1>   0.0800 
 38 H        2.9840     5.1370     0.9480 H     1 <1>   0.0800 
 39 H       -2.2420     4.6040     0.2490 H     1 <1>   0.0800 
 40 H       -2.5750     3.1100     1.0970 H     1 <1>   0.0800 
 41 H       -4.0440     4.0810    -1.3760 H     1 <1>   0.0800 
 42 H       -4.6600     4.1240     0.2580 H     1 <1>   0.0800 
 43 H       -4.3760     2.5890    -0.5240 H     1 <1>   0.0800 
 44 H        7.5760     1.6440     1.2200 H     1 <1>   0.1500 
 45 H        7.5190     2.7420    -2.9020 H     1 <1>   0.1500 
 46 H        9.9050     3.2900    -2.7780 H     1 <1>   0.1500 
 47 H       11.3550     0.9260     2.6140 H     1 <1>   0.0800 
 48 H       11.8200     1.3030     0.9580 H     1 <1>   0.0800 
 49 H       10.5360     0.1330     1.2700 H     1 <1>   0.0800 
 50 H       12.7730     4.4840    -0.0870 H     1 <1>   0.0800 
 51 H       11.6460     3.9340     1.1480 H     1 <1>   0.0800 
 52 H       11.1080     5.0620    -0.0990 H     1 <1>   0.0800 
@<TRIPOS>BOND
  1   1   2  2   
  2   2   3  am  
  3   2   4  am  
  4   3   5  1   
  5   3   6  1   
  6   4   7  1   
  7   4  27  1   
  8   5   8  1   
  9   5   9  1   
 10   5  28  1   
 11   6  10  1   
 12   6  29  1   
 13   6  30  1   
 14   7  11  1   
 15   7  31  1   
 16   7  32  1   
 17   8  33  1   
 18   8  34  1   
 19   8  35  1   
 20   9  36  1   
 21   9  37  1   
 22   9  38  1   
 23  10  12  1   
 24  10  13  2   
 25  11  14  1   
 26  11  39  1   
 27  11  40  1   
 28  12  15  1   
 29  13  16  1   
 30  14  41  1   
 31  14  42  1   
 32  14  43  1   
 33  15  16  2   
 34  16  17  1   
 35  17  18  ar  
 36  17  19  ar  
 37  18  20  ar  
 38  18  44  1   
 39  19  21  ar  
 40  19  45  1   
 41  20  22  1   
 42  20  23  ar  
 43  21  23  ar  
 44  21  46  1   
 45  22  24  1   
 46  23  25  1   
 47  24  47  1   
 48  24  48  1   
 49  24  49  1   
 50  25  26  1   
 51  26  50  1   
 52  26  51  1   
 53  26  52  1   
@<TRIPOS>SUBSTRUCTURE
  1 ****  13 GROUP 4 **** **** 0

# MOE 2024.06 (io_trps.svl 2023.06)
