@<TRIPOS>MOLECULE
1,3-Dicyclohexyl-1-[3-(4-methoxy-phenyl)-[1,2,4]oxadiazol-5-ylmethyl]-urea
62 65 1 0 0 
SMALL
USER_CHARGES


@<TRIPOS>ATOM
  1 O        0.3350     0.4040    -1.1990 O.2   1 <1>  -0.5700 
  2 C        0.4040     1.5640    -0.8380 C.2   1 <1>   0.6900 
  3 N        1.4690     2.3450    -1.2120 N.am  1 <1>  -0.6600 
  4 N       -0.5760     2.0760    -0.0620 N.am  1 <1>  -0.7300 
  5 C        1.6800     3.7910    -0.8980 C.3   1 <1>   0.2200 
  6 C        2.6160     1.7060    -1.9350 C.3   1 <1>   0.3200 
  7 C       -1.7440     1.3550     0.4590 C.3   1 <1>   0.2200 
  8 C        1.8780     4.0260     0.6090 C.3   1 <1>  -0.1600 
  9 C        0.5750     4.6770    -1.4950 C.3   1 <1>  -0.1600 
 10 C        3.8740     1.6920    -1.0800 C.2   1 <1>   0.2980 
 11 C       -3.0130     2.0910     0.0170 C.3   1 <1>  -0.1600 
 12 C       -1.6400     1.2920     1.9860 C.3   1 <1>  -0.1600 
 13 C        2.1290     5.5120     0.9010 C.3   1 <1>  -0.1600 
 14 C        0.8370     6.1590    -1.1850 C.3   1 <1>  -0.1600 
 15 O        3.9150     0.9030    -0.0390 O.3   1 <1>  -0.0190 
 16 N        4.9120     2.3990    -1.2690 N.2   1 <1>  -0.5650 
 17 C       -4.2680     1.4500     0.6280 C.3   1 <1>  -0.1600 
 18 C       -2.8930     0.6490     2.6010 C.3   1 <1>  -0.1600 
 19 C        1.0100     6.3900     0.3230 C.3   1 <1>  -0.1600 
 20 N        5.0790     1.1320     0.4840 N.2   1 <1>  -0.4100 
 21 C        5.6720     2.0150    -0.2380 C.2   1 <1>   0.4620 
 22 C       -4.1660     1.3820     2.1580 C.3   1 <1>  -0.1600 
 23 C        6.9970     2.5600     0.0060 C.ar  1 <1>   0.0540 
 24 C        7.7690     2.1310     1.0890 C.ar  1 <1>  -0.1500 
 25 C        7.5560     3.5350    -0.8230 C.ar  1 <1>  -0.1500 
 26 C        9.0290     2.6430     1.3360 C.ar  1 <1>  -0.1500 
 27 C        8.8150     4.0530    -0.5840 C.ar  1 <1>  -0.1500 
 28 C        9.5630     3.6140     0.4950 C.ar  1 <1>   0.0820 
 29 O       10.7870     4.1700     0.6610 O.3   1 <1>  -0.3620 
 30 C       11.6310     3.7870     1.7230 C.3   1 <1>   0.0400 
 31 H       -0.4700     3.0370     0.2450 H     1 <1>   0.3700 
 32 H        2.5960     4.1020    -1.3730 H     1 <1>   0.0800 
 33 H        2.8110     2.2630    -2.8340 H     1 <1>   0.0800 
 34 H        2.3900     0.6960    -2.2260 H     1 <1>   0.0800 
 35 H       -1.7620     0.3520     0.0640 H     1 <1>   0.0800 
 36 H        2.7220     3.4540     0.9520 H     1 <1>   0.0800 
 37 H        1.0160     3.7120     1.1650 H     1 <1>   0.0800 
 38 H       -0.3870     4.4170    -1.0970 H     1 <1>   0.0800 
 39 H        0.5450     4.5380    -2.5610 H     1 <1>   0.0800 
 40 H       -3.0840     2.0580    -1.0560 H     1 <1>   0.0800 
 41 H       -2.9590     3.1200     0.3260 H     1 <1>   0.0800 
 42 H       -1.5270     2.2850     2.3820 H     1 <1>   0.0800 
 43 H       -0.7740     0.7130     2.2570 H     1 <1>   0.0800 
 44 H        3.0710     5.8050     0.4690 H     1 <1>   0.0800 
 45 H        2.1960     5.6640     1.9640 H     1 <1>   0.0800 
 46 H        0.0180     6.7540    -1.5500 H     1 <1>   0.0800 
 47 H        1.7290     6.4790    -1.6980 H     1 <1>   0.0800 
 48 H       -4.3860     0.4550     0.2350 H     1 <1>   0.0800 
 49 H       -5.1370     2.0200     0.3480 H     1 <1>   0.0800 
 50 H       -2.8180     0.6690     3.6750 H     1 <1>   0.0800 
 51 H       -2.9500    -0.3820     2.2940 H     1 <1>   0.0800 
 52 H        1.2400     7.4270     0.5020 H     1 <1>   0.0800 
 53 H        0.0850     6.1690     0.8270 H     1 <1>   0.0800 
 54 H       -5.0290     0.8740     2.5540 H     1 <1>   0.0800 
 55 H       -4.1610     2.3810     2.5600 H     1 <1>   0.0800 
 56 H        7.3720     1.3800     1.7510 H     1 <1>   0.1500 
 57 H        6.9970     3.8940    -1.6690 H     1 <1>   0.1500 
 58 H        9.5790     2.2770     2.1820 H     1 <1>   0.1500 
 59 H        9.2280     4.8030    -1.2340 H     1 <1>   0.1500 
 60 H       12.5400     4.3560     1.6490 H     1 <1>   0.0800 
 61 H       11.8480     2.7380     1.6360 H     1 <1>   0.0800 
 62 H       11.1390     4.0040     2.6550 H     1 <1>   0.0800 
@<TRIPOS>BOND
  1   1   2  2   
  2   2   3  am  
  3   2   4  am  
  4   3   5  1   
  5   3   6  1   
  6   4   7  1   
  7   4  31  1   
  8   5   8  1   
  9   5   9  1   
 10   5  32  1   
 11   6  10  1   
 12   6  33  1   
 13   6  34  1   
 14   7  11  1   
 15   7  12  1   
 16   7  35  1   
 17   8  13  1   
 18   8  36  1   
 19   8  37  1   
 20   9  14  1   
 21   9  38  1   
 22   9  39  1   
 23  10  15  1   
 24  10  16  2   
 25  11  17  1   
 26  11  40  1   
 27  11  41  1   
 28  12  18  1   
 29  12  42  1   
 30  12  43  1   
 31  13  19  1   
 32  13  44  1   
 33  13  45  1   
 34  14  19  1   
 35  14  46  1   
 36  14  47  1   
 37  15  20  1   
 38  16  21  1   
 39  17  22  1   
 40  17  48  1   
 41  17  49  1   
 42  18  22  1   
 43  18  50  1   
 44  18  51  1   
 45  19  52  1   
 46  19  53  1   
 47  20  21  2   
 48  21  23  1   
 49  22  54  1   
 50  22  55  1   
 51  23  24  ar  
 52  23  25  ar  
 53  24  26  ar  
 54  24  56  1   
 55  25  27  ar  
 56  25  57  1   
 57  26  28  ar  
 58  26  58  1   
 59  27  28  ar  
 60  27  59  1   
 61  28  29  1   
 62  29  30  1   
 63  30  60  1   
 64  30  61  1   
 65  30  62  1   
@<TRIPOS>SUBSTRUCTURE
  1 ****  10 GROUP 4 **** **** 0

# MOE 2024.06 (io_trps.svl 2023.06)
