@<TRIPOS>MOLECULE
4-[(Cyclohexyl-thiophen-2-ylmethyl-amino)-methyl]-6-methoxy-chromen-2-one
53 56 1 0 0 
SMALL
USER_CHARGES


@<TRIPOS>ATOM
  1 S       -2.7650    -2.6590    -0.5390 S.3   1 <1>  -0.0800 
  2 C       -2.5690    -1.4600     0.7320 C.2   1 <1>  -0.1400 
  3 C       -1.5610    -3.7010     0.1930 C.2   1 <1>  -0.1100 
  4 C       -1.6470    -1.8700     1.6250 C.2   1 <1>  -0.1500 
  5 C       -3.4220    -0.2120     0.6440 C.3   1 <1>   0.5230 
  6 C       -1.0730    -3.1440     1.3160 C.2   1 <1>  -0.1500 
  7 N       -3.1830     0.4310    -0.6860 N.4   1 <1>  -0.9590 
  8 C       -2.1760     1.5450    -0.6600 C.3   1 <1>   0.4230 
  9 C       -4.4730     0.8230    -1.3350 C.3   1 <1>   0.4810 
 10 C       -1.8520     1.9930    -2.1000 C.3   1 <1>  -0.1600 
 11 C       -0.8790     1.1200     0.0580 C.3   1 <1>  -0.1600 
 12 C       -5.3300    -0.4060    -1.5890 C.2   1 <1>  -0.1670 
 13 C       -0.7670     3.0790    -2.1450 C.3   1 <1>  -0.1600 
 14 C        0.2030     2.2080     0.0090 C.3   1 <1>  -0.1600 
 15 C       -6.4120    -0.7410    -0.7010 C.ar  1 <1>   0.0280 
 16 C       -5.1000    -1.2120    -2.6520 C.2   1 <1>  -0.1360 
 17 C        0.5070     2.6220    -1.4320 C.3   1 <1>  -0.1600 
 18 C       -7.1270    -1.9230    -0.9520 C.ar  1 <1>   0.0830 
 19 C       -6.8040     0.0250     0.4000 C.ar  1 <1>  -0.1500 
 20 C       -5.8700    -2.3900    -2.8920 C.2   1 <1>   0.7060 
 21 O       -6.8320    -2.6980    -2.0220 O.3   1 <1>  -0.2320 
 22 C       -8.1580    -2.3280    -0.1180 C.ar  1 <1>  -0.1500 
 23 C       -7.8260    -0.3780     1.2360 C.ar  1 <1>   0.0830 
 24 O       -5.6770    -3.1180    -3.8400 O.2   1 <1>  -0.5700 
 25 C       -8.5090    -1.5660     0.9770 C.ar  1 <1>  -0.1500 
 26 O       -8.1000     0.4360     2.2850 O.3   1 <1>  -0.3620 
 27 C       -9.1790     0.1680     3.1560 C.3   1 <1>   0.0400 
 28 H       -1.3430    -4.6340    -0.2990 H     1 <1>   0.1500 
 29 H       -1.3310    -1.3400     2.5080 H     1 <1>   0.1500 
 30 H       -3.1830     0.4660     1.4460 H     1 <1>   0.0800 
 31 H       -4.4500    -0.5080     0.7510 H     1 <1>   0.0800 
 32 H       -0.3240    -3.5840     1.9530 H     1 <1>   0.1500 
 33 H       -2.7750    -0.3250    -1.2500 H     1 <1>   0.4500 
 34 H       -2.5890     2.3880    -0.1280 H     1 <1>   0.0800 
 35 H       -4.2780     1.2810    -2.2890 H     1 <1>   0.0800 
 36 H       -4.9990     1.5420    -0.7310 H     1 <1>   0.0800 
 37 H       -2.7170     2.4070    -2.5820 H     1 <1>   0.0800 
 38 H       -1.5090     1.1480    -2.6730 H     1 <1>   0.0800 
 39 H       -0.4850     0.2290    -0.4010 H     1 <1>   0.0800 
 40 H       -1.0680     0.9190     1.0960 H     1 <1>   0.0800 
 41 H       -1.1320     3.9800    -1.6800 H     1 <1>   0.0800 
 42 H       -0.5340     3.3160    -3.1700 H     1 <1>   0.0800 
 43 H        1.1050     1.8430     0.4710 H     1 <1>   0.0800 
 44 H       -0.1210     3.0710     0.5670 H     1 <1>   0.0800 
 45 H       -4.3280    -1.0340    -3.3780 H     1 <1>   0.1500 
 46 H        1.2270     3.4240    -1.4320 H     1 <1>   0.0800 
 47 H        0.9440     1.7930    -1.9630 H     1 <1>   0.0800 
 48 H       -6.3310     0.9570     0.6390 H     1 <1>   0.1500 
 49 H       -8.6830    -3.2430    -0.3340 H     1 <1>   0.1500 
 50 H       -9.3080    -1.9030     1.6110 H     1 <1>   0.1500 
 51 H       -9.2260     0.9570     3.8850 H     1 <1>   0.0800 
 52 H       -9.0070    -0.7730     3.6490 H     1 <1>   0.0800 
 53 H      -10.0920     0.1440     2.5870 H     1 <1>   0.0800 
@<TRIPOS>BOND
  1   1   2  1   
  2   1   3  1   
  3   2   4  2   
  4   2   5  1   
  5   3   6  2   
  6   3  28  1   
  7   4   6  1   
  8   4  29  1   
  9   5   7  1   
 10   5  30  1   
 11   5  31  1   
 12   6  32  1   
 13   7   8  1   
 14   7   9  1   
 15   7  33  1   
 16   8  10  1   
 17   8  11  1   
 18   8  34  1   
 19   9  12  1   
 20   9  35  1   
 21   9  36  1   
 22  10  13  1   
 23  10  37  1   
 24  10  38  1   
 25  11  14  1   
 26  11  39  1   
 27  11  40  1   
 28  12  15  1   
 29  12  16  2   
 30  13  17  1   
 31  13  41  1   
 32  13  42  1   
 33  14  17  1   
 34  14  43  1   
 35  14  44  1   
 36  15  18  ar  
 37  15  19  ar  
 38  16  20  1   
 39  16  45  1   
 40  17  46  1   
 41  17  47  1   
 42  18  21  1   
 43  18  22  ar  
 44  19  23  ar  
 45  19  48  1   
 46  20  21  1   
 47  20  24  2   
 48  22  25  ar  
 49  22  49  1   
 50  23  25  ar  
 51  23  26  1   
 52  25  50  1   
 53  26  27  1   
 54  27  51  1   
 55  27  52  1   
 56  27  53  1   
@<TRIPOS>SUBSTRUCTURE
  1 ****   5 GROUP 4 **** **** 0

# MOE 2024.06 (io_trps.svl 2023.06)
