@<TRIPOS>MOLECULE
1-(Furan-2-carbonyl)-piperidine-4-carboxylic acid (4-methoxy-phenyl)-amide
44 46 1 0 0 
SMALL
USER_CHARGES


@<TRIPOS>ATOM
  1 O        0.2250     1.3260    -1.5730 O.2   1 <1>  -0.5700 
  2 C       -0.2190     2.0940    -0.7370 C.2   1 <1>   0.7150 
  3 N        0.6750     2.7950     0.0560 N.am  1 <1>  -0.6600 
  4 C       -1.6530     2.2310    -0.5730 C.2   1 <1>   0.0550 
  5 C        2.1210     2.4350     0.1000 C.3   1 <1>   0.1400 
  6 C        0.3210     4.0570     0.7630 C.3   1 <1>   0.1400 
  7 O       -2.4600     2.3250    -1.6260 O.3   1 <1>  -0.2800 
  8 C       -2.4190     2.2840     0.5550 C.2   1 <1>  -0.1500 
  9 C        2.9630     3.5850    -0.4590 C.3   1 <1>  -0.1600 
 10 C        1.1650     5.2130     0.2180 C.3   1 <1>  -0.1600 
 11 C       -3.6990     2.4380    -1.2080 C.2   1 <1>  -0.0100 
 12 C       -3.7440     2.4200     0.1410 C.2   1 <1>  -0.1500 
 13 C        2.6750     4.9060     0.2780 C.3   1 <1>  -0.0190 
 14 C        3.5290     6.0440    -0.2840 C.2   1 <1>   0.5690 
 15 O        3.1230     6.6740    -1.2300 O.2   1 <1>  -0.5700 
 16 N        4.7350     6.2790     0.3190 N.am  1 <1>  -0.5470 
 17 C        5.7220     7.2470     0.0630 C.ar  1 <1>   0.1170 
 18 C        7.0180     7.0080     0.5060 C.ar  1 <1>  -0.1500 
 19 C        5.4620     8.4440    -0.5970 C.ar  1 <1>  -0.1500 
 20 C        8.0290     7.9300     0.2970 C.ar  1 <1>  -0.1500 
 21 C        6.4680     9.3690    -0.8100 C.ar  1 <1>  -0.1500 
 22 C        7.7560     9.1230    -0.3670 C.ar  1 <1>   0.0820 
 23 O        8.6850    10.0830    -0.6160 O.3   1 <1>  -0.3630 
 24 C       10.0290     9.9140    -0.2240 C.3   1 <1>   0.0400 
 25 H        2.3120     1.5400    -0.4690 H     1 <1>   0.0800 
 26 H        2.3980     2.2380     1.1210 H     1 <1>   0.0800 
 27 H        0.5030     3.9320     1.8170 H     1 <1>   0.0800 
 28 H       -0.7180     4.2990     0.6270 H     1 <1>   0.0800 
 29 H       -2.0880     2.2250     1.5760 H     1 <1>   0.1500 
 30 H        2.7420     3.6980    -1.5070 H     1 <1>   0.0800 
 31 H        4.0050     3.3340    -0.3720 H     1 <1>   0.0800 
 32 H        0.9550     6.1050     0.7810 H     1 <1>   0.0800 
 33 H        0.8710     5.3990    -0.8020 H     1 <1>   0.0800 
 34 H       -4.4890     2.5240    -1.9340 H     1 <1>   0.1500 
 35 H       -4.6040     2.4900     0.7840 H     1 <1>   0.1500 
 36 H        2.9370     4.7780     1.3130 H     1 <1>   0.0800 
 37 H        4.9840     5.6200     1.0510 H     1 <1>   0.3700 
 38 H        7.2450     6.0910     1.0180 H     1 <1>   0.1500 
 39 H        4.4700     8.6650    -0.9480 H     1 <1>   0.1500 
 40 H        9.0160     7.7060     0.6540 H     1 <1>   0.1500 
 41 H        6.2580    10.2900    -1.3230 H     1 <1>   0.1500 
 42 H       10.5770    10.7870    -0.5300 H     1 <1>   0.0800 
 43 H       10.4280     9.0430    -0.7130 H     1 <1>   0.0800 
 44 H       10.0710     9.8130     0.8460 H     1 <1>   0.0800 
@<TRIPOS>BOND
  1   1   2  2   
  2   2   3  am  
  3   2   4  1   
  4   3   5  1   
  5   3   6  1   
  6   4   7  1   
  7   4   8  2   
  8   5   9  1   
  9   5  25  1   
 10   5  26  1   
 11   6  10  1   
 12   6  27  1   
 13   6  28  1   
 14   7  11  1   
 15   8  12  1   
 16   8  29  1   
 17   9  13  1   
 18   9  30  1   
 19   9  31  1   
 20  10  13  1   
 21  10  32  1   
 22  10  33  1   
 23  11  12  2   
 24  11  34  1   
 25  12  35  1   
 26  13  14  1   
 27  13  36  1   
 28  14  15  2   
 29  14  16  am  
 30  16  17  1   
 31  16  37  1   
 32  17  18  ar  
 33  17  19  ar  
 34  18  20  ar  
 35  18  38  1   
 36  19  21  ar  
 37  19  39  1   
 38  20  22  ar  
 39  20  40  1   
 40  21  22  ar  
 41  21  41  1   
 42  22  23  1   
 43  23  24  1   
 44  24  42  1   
 45  24  43  1   
 46  24  44  1   
@<TRIPOS>SUBSTRUCTURE
  1 ****  13 GROUP 4 **** **** 0

# MOE 2024.06 (io_trps.svl 2023.06)
