@<TRIPOS>MOLECULE
N-(5-Methyl-7-oxo-4,7-dihydro-[1,2,4]triazolo[1,5-a]pyrimidin-2-yl)-isobutyramid
30 31 1 0 0 
SMALL
USER_CHARGES


@<TRIPOS>ATOM
  1 O        0.0730    -0.5060    -1.0200 O.2   1 <1>  -0.5700 
  2 C       -0.0960    -1.6350    -0.5810 C.2   1 <1>   0.5650 
  3 N       -1.3780    -2.1710    -0.3070 N.pl3 1 <1>   0.5610 
  4 C        1.0230    -2.4800    -0.3140 C.2   1 <1>  -0.1360 
  5 N       -2.6330    -1.6790    -0.4240 N.2   1 <1>  -0.7070 
  6 C       -1.4980    -3.4260     0.1960 C.2   1 <1>   0.2700 
  7 C        0.8780    -3.7360     0.1850 C.2   1 <1>  -0.0380 
  8 C       -3.3590    -2.6580    -0.0110 C.2   1 <1>   0.5790 
  9 N       -2.7180    -3.7600     0.4000 N.2   1 <1>  -0.5650 
 10 N       -0.3840    -4.2150     0.4440 N.pl3 1 <1>  -0.5840 
 11 C        2.0370    -4.6650     0.4830 C.3   1 <1>  -0.1020 
 12 N       -4.7340    -2.6620     0.0810 N.am  1 <1>  -0.4930 
 13 C       -5.6690    -1.9020    -0.5500 C.2   1 <1>   0.5690 
 14 O       -5.4120    -1.0910    -1.4060 O.2   1 <1>  -0.5700 
 15 C       -7.1350    -2.1260    -0.1600 C.3   1 <1>  -0.0190 
 16 C       -7.9200    -2.7940    -1.3000 C.3   1 <1>  -0.2400 
 17 C       -7.8220    -0.8130     0.2520 C.3   1 <1>  -0.2400 
 18 H        1.9870    -2.0610    -0.5320 H     1 <1>   0.1500 
 19 H       -0.5540    -5.1550     0.8200 H     1 <1>   0.4000 
 20 H        2.0420    -4.9270     1.5260 H     1 <1>   0.0800 
 21 H        2.9740    -4.1940     0.2450 H     1 <1>   0.0800 
 22 H        1.9490    -5.5640    -0.1020 H     1 <1>   0.0800 
 23 H       -5.0650    -3.4130     0.6720 H     1 <1>   0.3700 
 24 H       -7.1640    -2.7850     0.6900 H     1 <1>   0.0800 
 25 H       -7.9260    -2.1570    -2.1680 H     1 <1>   0.0800 
 26 H       -8.9370    -2.9810    -1.0020 H     1 <1>   0.0800 
 27 H       -7.4620    -3.7290    -1.5710 H     1 <1>   0.0800 
 28 H       -7.8370    -0.1250    -0.5760 H     1 <1>   0.0800 
 29 H       -7.2850    -0.3530     1.0630 H     1 <1>   0.0800 
 30 H       -8.8340    -0.9960     0.5680 H     1 <1>   0.0800 
@<TRIPOS>BOND
  1   1   2  2   
  2   2   3  1   
  3   2   4  1   
  4   3   5  1   
  5   3   6  1   
  6   4   7  2   
  7   4  18  1   
  8   5   8  2   
  9   6   9  2   
 10   6  10  1   
 11   7  10  1   
 12   7  11  1   
 13   8   9  1   
 14   8  12  1   
 15  10  19  1   
 16  11  20  1   
 17  11  21  1   
 18  11  22  1   
 19  12  13  am  
 20  12  23  1   
 21  13  14  2   
 22  13  15  1   
 23  15  16  1   
 24  15  17  1   
 25  15  24  1   
 26  16  25  1   
 27  16  26  1   
 28  16  27  1   
 29  17  28  1   
 30  17  29  1   
 31  17  30  1   
@<TRIPOS>SUBSTRUCTURE
  1 ****   8 GROUP 4 **** **** 0

# MOE 2024.06 (io_trps.svl 2023.06)
