@<TRIPOS>MOLECULE
6-Methoxy-4-[4-(2-methoxy-phenyl)-piperazin-1-ylmethyl]-chromen-2-one
53 56 1 0 0 
SMALL
USER_CHARGES


@<TRIPOS>ATOM
  1 O       -1.6220     0.0690     0.5680 O.2   1 <1>  -0.5700 
  2 C       -1.5000     1.2560     0.3660 C.2   1 <1>   0.7060 
  3 O       -2.1320     2.1190     1.1630 O.3   1 <1>  -0.2330 
  4 C       -0.6770     1.7820    -0.6760 C.2   1 <1>  -0.1360 
  5 C       -2.0530     3.4600     1.0000 C.ar  1 <1>   0.0820 
  6 C       -0.5440     3.1130    -0.8800 C.2   1 <1>  -0.1670 
  7 C       -1.2820     4.0130    -0.0350 C.ar  1 <1>   0.0280 
  8 C       -2.7570     4.2690     1.8790 C.ar  1 <1>  -0.1500 
  9 C        0.3700     3.6720    -1.9550 C.3   1 <1>   0.4810 
 10 C       -1.2880     5.4040    -0.1700 C.ar  1 <1>  -0.1500 
 11 C       -2.7220     5.6420     1.7420 C.ar  1 <1>  -0.1500 
 12 N        1.5140     4.3490    -1.2910 N.4   1 <1>  -0.9590 
 13 C       -1.9830     6.2130     0.7070 C.ar  1 <1>   0.0830 
 14 C        2.3160     5.1910    -2.2520 C.3   1 <1>   0.3430 
 15 C        2.4130     3.3830    -0.5580 C.3   1 <1>   0.3430 
 16 O       -1.8930     7.5480     0.4890 O.3   1 <1>  -0.3630 
 17 C        3.4750     5.9280    -1.5520 C.3   1 <1>   0.2090 
 18 C        3.5730     4.0980     0.1610 C.3   1 <1>   0.2090 
 19 C       -2.6620     8.4630     1.2430 C.3   1 <1>   0.0400 
 20 N        4.3290     4.9780    -0.7790 N.pl3 1 <1>  -0.8380 
 21 C        5.4730     5.5650    -0.2190 C.ar  1 <1>   0.1000 
 22 C        5.4400     6.5260     0.8100 C.ar  1 <1>   0.0830 
 23 C        6.7040     5.1640    -0.7190 C.ar  1 <1>  -0.1500 
 24 O        4.2190     6.9170     1.2970 O.3   1 <1>  -0.3630 
 25 C        6.6340     7.0490     1.2990 C.ar  1 <1>  -0.1500 
 26 C        7.8840     5.6890    -0.2270 C.ar  1 <1>  -0.1500 
 27 C        4.1160     7.8890     2.3160 C.3   1 <1>   0.0400 
 28 C        7.8490     6.6320     0.7830 C.ar  1 <1>  -0.1500 
 29 H       -0.1780     1.0370    -1.2670 H     1 <1>   0.1500 
 30 H       -3.3320     3.8160     2.6690 H     1 <1>   0.1500 
 31 H       -0.1800     4.3730    -2.5620 H     1 <1>   0.0800 
 32 H        0.7290     2.8790    -2.5910 H     1 <1>   0.0800 
 33 H       -0.7640     5.8960    -0.9650 H     1 <1>   0.1500 
 34 H       -3.2710     6.2490     2.4390 H     1 <1>   0.1500 
 35 H        1.1290     4.9810    -0.5750 H     1 <1>   0.4500 
 36 H        1.6790     5.9190    -2.7270 H     1 <1>   0.0800 
 37 H        2.7360     4.5640    -3.0210 H     1 <1>   0.0800 
 38 H        2.8360     2.6790    -1.2560 H     1 <1>   0.0800 
 39 H        1.8450     2.8290     0.1710 H     1 <1>   0.0800 
 40 H        3.0780     6.6840    -0.8980 H     1 <1>   0.0800 
 41 H        4.0830     6.4230    -2.2910 H     1 <1>   0.0800 
 42 H        4.2470     3.3650     0.5710 H     1 <1>   0.0800 
 43 H        3.1850     4.6790     0.9790 H     1 <1>   0.0800 
 44 H       -2.4680     9.4520     0.8680 H     1 <1>   0.0800 
 45 H       -2.3690     8.4010     2.2760 H     1 <1>   0.0800 
 46 H       -3.7050     8.2270     1.1230 H     1 <1>   0.0800 
 47 H        6.7320     4.4320    -1.5040 H     1 <1>   0.1500 
 48 H        6.6500     7.7820     2.0820 H     1 <1>   0.1500 
 49 H        8.8280     5.3640    -0.6290 H     1 <1>   0.1500 
 50 H        3.0750     8.0420     2.5310 H     1 <1>   0.0800 
 51 H        4.5560     8.8070     1.9700 H     1 <1>   0.0800 
 52 H        4.6200     7.5280     3.1960 H     1 <1>   0.0800 
 53 H        8.7670     7.0420     1.1670 H     1 <1>   0.1500 
@<TRIPOS>BOND
  1   1   2  2   
  2   2   3  1   
  3   2   4  1   
  4   3   5  1   
  5   4   6  2   
  6   4  29  1   
  7   5   7  ar  
  8   5   8  ar  
  9   6   7  1   
 10   6   9  1   
 11   7  10  ar  
 12   8  11  ar  
 13   8  30  1   
 14   9  12  1   
 15   9  31  1   
 16   9  32  1   
 17  10  13  ar  
 18  10  33  1   
 19  11  13  ar  
 20  11  34  1   
 21  12  14  1   
 22  12  15  1   
 23  12  35  1   
 24  13  16  1   
 25  14  17  1   
 26  14  36  1   
 27  14  37  1   
 28  15  18  1   
 29  15  38  1   
 30  15  39  1   
 31  16  19  1   
 32  17  20  1   
 33  17  40  1   
 34  17  41  1   
 35  18  20  1   
 36  18  42  1   
 37  18  43  1   
 38  19  44  1   
 39  19  45  1   
 40  19  46  1   
 41  20  21  1   
 42  21  22  ar  
 43  21  23  ar  
 44  22  24  1   
 45  22  25  ar  
 46  23  26  ar  
 47  23  47  1   
 48  24  27  1   
 49  25  28  ar  
 50  25  48  1   
 51  26  28  ar  
 52  26  49  1   
 53  27  50  1   
 54  27  51  1   
 55  27  52  1   
 56  28  53  1   
@<TRIPOS>SUBSTRUCTURE
  1 ****  12 GROUP 4 **** **** 0

# MOE 2024.06 (io_trps.svl 2023.06)
