@<TRIPOS>MOLECULE
4-(4-Hydroxy-phenyl)-2,7-dimethyl-5-oxo-1,4,5,6,7,8-hexahydro-quinoline-3-carbox
55 58 1 0 0 
SMALL
USER_CHARGES


@<TRIPOS>ATOM
  1 O       -0.0440    -0.8340    -1.6470 O.2   1 <1>  -0.5700 
  2 C        0.0870    -1.7940    -0.9270 C.2   1 <1>   0.4950 
  3 C        1.3390    -2.3070    -0.4820 C.2   1 <1>  -0.1240 
  4 C       -1.1780    -2.5320    -0.5210 C.3   1 <1>  -0.0990 
  5 C        1.4670    -3.4510     0.2350 C.2   1 <1>  -0.0380 
  6 C        2.5860    -1.5020    -0.8570 C.3   1 <1>   0.3400 
  7 C       -0.9950    -3.3430     0.7750 C.3   1 <1>  -0.0800 
  8 N        2.6960    -3.9680     0.5660 N.pl3 1 <1>  -0.6000 
  9 C        0.2510    -4.2430     0.6920 C.3   1 <1>  -0.0220 
 10 C        3.8970    -2.2440    -0.5740 C.2   1 <1>  -0.1240 
 11 C        2.6020    -0.1960    -0.0570 C.ar  1 <1>  -0.1440 
 12 C       -2.2510    -4.1670     1.0880 C.3   1 <1>  -0.2400 
 13 C        3.8780    -3.4190     0.1140 C.2   1 <1>  -0.0380 
 14 C        5.0410    -1.5470    -1.0720 C.2   1 <1>   0.6160 
 15 C        2.5840     1.0300    -0.7110 C.ar  1 <1>  -0.1500 
 16 C        2.6480    -0.2230     1.3320 C.ar  1 <1>  -0.1500 
 17 C        5.0990    -4.2640     0.4420 C.3   1 <1>  -0.1020 
 18 O        5.0620    -1.1220    -2.2120 O.2   1 <1>  -0.5700 
 19 N        6.1100    -1.3500    -0.2410 N.am  1 <1>  -0.5470 
 20 C        2.6140     2.2090     0.0120 C.ar  1 <1>  -0.1500 
 21 C        2.6800     0.9540     2.0590 C.ar  1 <1>  -0.1500 
 22 C        7.3610    -0.8020    -0.3980 C.ar  1 <1>   0.4270 
 23 C        2.6640     2.1680     1.3930 C.ar  1 <1>   0.0820 
 24 N        8.1520    -1.0490     0.6350 N.ar  1 <1>  -0.6200 
 25 C        7.7640    -0.0600    -1.5070 C.ar  1 <1>  -0.1500 
 26 O        2.6970     3.3170     2.0840 O.3   1 <1>  -0.5330 
 27 C        9.3760    -0.5510     0.5610 C.ar  1 <1>   0.1600 
 28 C        9.0400     0.4490    -1.5690 C.ar  1 <1>  -0.1500 
 29 C        9.8720     0.1930    -0.4990 C.ar  1 <1>  -0.1430 
 30 C       11.2940     0.7260    -0.5010 C.3   1 <1>  -0.0970 
 31 H       -1.4550    -3.1840    -1.3300 H     1 <1>   0.0800 
 32 H       -1.9670    -1.8140    -0.3880 H     1 <1>   0.0800 
 33 H        2.5340    -1.2880    -1.9110 H     1 <1>   0.0800 
 34 H       -0.8410    -2.6440     1.5810 H     1 <1>   0.0800 
 35 H        2.7380    -4.8470     1.0940 H     1 <1>   0.4000 
 36 H        0.4390    -4.6660     1.6630 H     1 <1>   0.0800 
 37 H        0.0840    -5.0510     0.0000 H     1 <1>   0.0800 
 38 H       -2.4450    -4.8800     0.3060 H     1 <1>   0.0800 
 39 H       -3.1060    -3.5210     1.1820 H     1 <1>   0.0800 
 40 H       -2.1290    -4.6990     2.0150 H     1 <1>   0.0800 
 41 H        2.5440     1.0700    -1.7860 H     1 <1>   0.1500 
 42 H        2.6600    -1.1680     1.8480 H     1 <1>   0.1500 
 43 H        4.9090    -5.2920     0.1890 H     1 <1>   0.0800 
 44 H        5.3190    -4.2020     1.4920 H     1 <1>   0.0800 
 45 H        5.9640    -3.9560    -0.1140 H     1 <1>   0.0800 
 46 H        5.9880    -1.7100     0.7000 H     1 <1>   0.3700 
 47 H        2.6000     3.1590    -0.4910 H     1 <1>   0.1500 
 48 H        2.7160     0.9190     3.1310 H     1 <1>   0.1500 
 49 H        7.0830     0.1220    -2.3160 H     1 <1>   0.1500 
 50 H        2.7390     3.1800     3.0460 H     1 <1>   0.4500 
 51 H       10.0230    -0.7500     1.3970 H     1 <1>   0.1500 
 52 H        9.3700     1.0240    -2.4170 H     1 <1>   0.1500 
 53 H       11.8290     0.4030     0.3750 H     1 <1>   0.0800 
 54 H       11.2810     1.8010    -0.5180 H     1 <1>   0.0800 
 55 H       11.8170     0.3710    -1.3710 H     1 <1>   0.0800 
@<TRIPOS>BOND
  1   1   2  2   
  2   2   3  1   
  3   2   4  1   
  4   3   5  2   
  5   3   6  1   
  6   4   7  1   
  7   4  31  1   
  8   4  32  1   
  9   5   8  1   
 10   5   9  1   
 11   6  10  1   
 12   6  11  1   
 13   6  33  1   
 14   7   9  1   
 15   7  12  1   
 16   7  34  1   
 17   8  13  1   
 18   8  35  1   
 19   9  36  1   
 20   9  37  1   
 21  10  13  2   
 22  10  14  1   
 23  11  15  ar  
 24  11  16  ar  
 25  12  38  1   
 26  12  39  1   
 27  12  40  1   
 28  13  17  1   
 29  14  18  2   
 30  14  19  am  
 31  15  20  ar  
 32  15  41  1   
 33  16  21  ar  
 34  16  42  1   
 35  17  43  1   
 36  17  44  1   
 37  17  45  1   
 38  19  22  1   
 39  19  46  1   
 40  20  23  ar  
 41  20  47  1   
 42  21  23  ar  
 43  21  48  1   
 44  22  24  ar  
 45  22  25  ar  
 46  23  26  1   
 47  24  27  ar  
 48  25  28  ar  
 49  25  49  1   
 50  26  50  1   
 51  27  29  ar  
 52  27  51  1   
 53  28  29  ar  
 54  28  52  1   
 55  29  30  1   
 56  30  53  1   
 57  30  54  1   
 58  30  55  1   
@<TRIPOS>SUBSTRUCTURE
  1 ****  10 GROUP 4 **** **** 0

# MOE 2024.06 (io_trps.svl 2023.06)
