@<TRIPOS>MOLECULE
2-[2-Methyl-4-(morpholine-4-sulfonyl)-phenoxy]-1-pyrrolidin-1-yl-ethanone
49 51 1 0 0 
SMALL
USER_CHARGES


@<TRIPOS>ATOM
  1 S       -0.3310     0.3330    -1.3810 S.o2  1 <1>   1.4470 
  2 O       -1.1620     1.4760    -1.6900 O.2   1 <1>  -0.6500 
  3 O       -0.4040    -0.8460    -2.2170 O.2   1 <1>  -0.6500 
  4 N       -0.7290    -0.1520     0.1930 N.am  1 <1>  -0.8490 
  5 C        1.3920     0.8740    -1.2230 C.ar  1 <1>  -0.0090 
  6 C       -2.1850    -0.2750     0.3630 C.3   1 <1>   0.1960 
  7 C       -0.0890    -1.4220     0.5760 C.3   1 <1>   0.1960 
  8 C        1.7700     1.7670    -0.2280 C.ar  1 <1>  -0.1500 
  9 C        2.3730     0.4160    -2.0930 C.ar  1 <1>  -0.1500 
 10 C       -2.5430    -0.7250     1.7910 C.3   1 <1>   0.1200 
 11 C       -0.4910    -1.8330     2.0040 C.3   1 <1>   0.1200 
 12 C        3.0800     2.1940    -0.0920 C.ar  1 <1>  -0.1430 
 13 C        3.6870     0.8310    -1.9750 C.ar  1 <1>  -0.1500 
 14 O       -1.8840    -1.9170     2.1160 O.3   1 <1>  -0.5600 
 15 C        4.0490     1.7230    -0.9710 C.ar  1 <1>   0.0830 
 16 C        3.4450     3.1780     1.0110 C.3   1 <1>  -0.0970 
 17 O        5.3180     2.1690    -0.8030 O.3   1 <1>  -0.3630 
 18 C        6.3660     1.8010    -1.6860 C.3   1 <1>   0.1810 
 19 C        7.6820     2.4660    -1.2970 C.2   1 <1>   0.5690 
 20 O        8.2050     3.1930    -2.1100 O.2   1 <1>  -0.5700 
 21 N        8.2700     2.2150    -0.0850 N.am  1 <1>  -0.6600 
 22 C        7.7230     1.3670     0.9990 C.3   1 <1>   0.1400 
 23 C        9.5590     2.8180     0.3090 C.3   1 <1>   0.1400 
 24 C        8.6400     1.6200     2.1910 C.3   1 <1>  -0.1600 
 25 C        9.9610     2.0760     1.5780 C.3   1 <1>  -0.1600 
 26 H       -2.5810    -0.9870    -0.3430 H     1 <1>   0.0800 
 27 H       -2.6530     0.6760     0.1730 H     1 <1>   0.0800 
 28 H        0.9820    -1.3160     0.5300 H     1 <1>   0.0800 
 29 H       -0.3780    -2.2080    -0.1030 H     1 <1>   0.0800 
 30 H        1.0140     2.1330     0.4460 H     1 <1>   0.1500 
 31 H        2.1030    -0.2730    -2.8770 H     1 <1>   0.1500 
 32 H       -3.6010    -0.9020     1.8720 H     1 <1>   0.0800 
 33 H       -2.2610     0.0300     2.5040 H     1 <1>   0.0800 
 34 H       -0.1300    -1.1170     2.7210 H     1 <1>   0.0800 
 35 H       -0.0850    -2.8000     2.2420 H     1 <1>   0.0800 
 36 H        4.4060     0.4480    -2.6750 H     1 <1>   0.1500 
 37 H        2.5820     3.4590     1.5860 H     1 <1>   0.0800 
 38 H        3.8720     4.0660     0.5790 H     1 <1>   0.0800 
 39 H        4.1700     2.7350     1.6700 H     1 <1>   0.0800 
 40 H        6.0930     2.1130    -2.6780 H     1 <1>   0.0800 
 41 H        6.4830     0.7350    -1.6540 H     1 <1>   0.0800 
 42 H        7.7730     0.3340     0.7000 H     1 <1>   0.0800 
 43 H        6.7060     1.6350     1.2300 H     1 <1>   0.0800 
 44 H        9.4070     3.8650     0.5120 H     1 <1>   0.0800 
 45 H       10.2920     2.7050    -0.4720 H     1 <1>   0.0800 
 46 H        8.7510     0.7430     2.8040 H     1 <1>   0.0800 
 47 H        8.2230     2.4130     2.7880 H     1 <1>   0.0800 
 48 H       10.5300     2.7020     2.2430 H     1 <1>   0.0800 
 49 H       10.5550     1.2200     1.3080 H     1 <1>   0.0800 
@<TRIPOS>BOND
  1   1   2  2   
  2   1   3  2   
  3   1   4  am  
  4   1   5  1   
  5   4   6  1   
  6   4   7  1   
  7   5   8  ar  
  8   5   9  ar  
  9   6  10  1   
 10   6  26  1   
 11   6  27  1   
 12   7  11  1   
 13   7  28  1   
 14   7  29  1   
 15   8  12  ar  
 16   8  30  1   
 17   9  13  ar  
 18   9  31  1   
 19  10  14  1   
 20  10  32  1   
 21  10  33  1   
 22  11  14  1   
 23  11  34  1   
 24  11  35  1   
 25  12  15  ar  
 26  12  16  1   
 27  13  15  ar  
 28  13  36  1   
 29  15  17  1   
 30  16  37  1   
 31  16  38  1   
 32  16  39  1   
 33  17  18  1   
 34  18  19  1   
 35  18  40  1   
 36  18  41  1   
 37  19  20  2   
 38  19  21  am  
 39  21  22  1   
 40  21  23  1   
 41  22  24  1   
 42  22  42  1   
 43  22  43  1   
 44  23  25  1   
 45  23  44  1   
 46  23  45  1   
 47  24  25  1   
 48  24  46  1   
 49  24  47  1   
 50  25  48  1   
 51  25  49  1   
@<TRIPOS>SUBSTRUCTURE
  1 ****  12 GROUP 4 **** **** 0

# MOE 2024.06 (io_trps.svl 2023.06)
