@<TRIPOS>MOLECULE
Tricyclo[3.2.1.0*2,4*]octane-3-carboxylic acid
22 24 1 0 0 
SMALL
USER_CHARGES


@<TRIPOS>ATOM
  1 O       -0.6030    -1.1280    -0.0420 O.co2 1 <1>  -0.9000 
  2 C       -1.3820    -1.4690    -0.9410 C.2   1 <1>   0.9470 
  3 O       -0.9820    -1.9210    -2.0210 O.co2 1 <1>  -0.9000 
  4 C       -2.8900    -1.3370    -0.7330 C.3   1 <1>  -0.2470 
  5 C       -3.4800    -0.1880     0.0390 C.3   1 <1>  -0.1950 
  6 C       -3.5240    -1.5860     0.6080 C.3   1 <1>  -0.1950 
  7 C       -4.9430     0.2850     0.1230 C.3   1 <1>   0.0150 
  8 C       -5.0080    -1.7870     0.9660 C.3   1 <1>   0.0150 
  9 C       -5.3780    -0.3830     1.4180 C.3   1 <1>  -0.1600 
 10 C       -5.7970    -0.4800    -0.9030 C.3   1 <1>  -0.1600 
 11 C       -5.8420    -1.9100    -0.3220 C.3   1 <1>  -0.1600 
 12 H       -3.3950    -1.6790    -1.6130 H     1 <1>   0.1000 
 13 H       -2.7880     0.4940     0.5040 H     1 <1>   0.1000 
 14 H       -2.8600    -1.7870     1.4330 H     1 <1>   0.1000 
 15 H       -5.0580     1.3540     0.0960 H     1 <1>   0.0800 
 16 H       -5.1820    -2.5630     1.6900 H     1 <1>   0.0800 
 17 H       -6.4290    -0.2680     1.6180 H     1 <1>   0.0800 
 18 H       -4.7960    -0.0570     2.2640 H     1 <1>   0.0800 
 19 H       -5.3530    -0.4510    -1.8830 H     1 <1>   0.0800 
 20 H       -6.7870    -0.0630    -0.9500 H     1 <1>   0.0800 
 21 H       -6.8550    -2.1860    -0.0860 H     1 <1>   0.0800 
 22 H       -5.4230    -2.6380    -0.9930 H     1 <1>   0.0800 
@<TRIPOS>BOND
  1   1   2  ar  
  2   2   3  ar  
  3   2   4  1   
  4   4   5  1   
  5   4   6  1   
  6   4  12  1   
  7   5   6  1   
  8   5   7  1   
  9   5  13  1   
 10   6   8  1   
 11   6  14  1   
 12   7   9  1   
 13   7  10  1   
 14   7  15  1   
 15   8   9  1   
 16   8  11  1   
 17   8  16  1   
 18   9  17  1   
 19   9  18  1   
 20  10  11  1   
 21  10  19  1   
 22  10  20  1   
 23  11  21  1   
 24  11  22  1   
@<TRIPOS>SUBSTRUCTURE
  1 ****   6 GROUP 4 **** **** 0

# MOE 2024.06 (io_trps.svl 2023.06)
