@<TRIPOS>MOLECULE
1-Benzenesulfonyl-piperidine-4-carboxylic acid pyridin-4-ylamide
43 45 1 0 0 
SMALL
USER_CHARGES


@<TRIPOS>ATOM
  1 S       -0.1070     0.3390    -1.1940 S.o2  1 <1>   1.4470 
  2 O        0.0950     1.6980    -1.6470 O.2   1 <1>  -0.6500 
  3 O       -0.4270    -0.6870    -2.1650 O.2   1 <1>  -0.6500 
  4 N        1.3280    -0.1570    -0.4370 N.am  1 <1>  -0.8490 
  5 C       -1.3190     0.3300     0.1570 C.ar  1 <1>  -0.0090 
  6 C        2.4960     0.1420    -1.2690 C.3   1 <1>   0.1960 
  7 C        1.2820    -1.5700    -0.0500 C.3   1 <1>   0.1960 
  8 C       -1.0430     0.9570     1.3670 C.ar  1 <1>  -0.1500 
  9 C       -2.5500    -0.3010     0.0180 C.ar  1 <1>  -0.1500 
 10 C        3.7860    -0.1800    -0.5100 C.3   1 <1>  -0.1600 
 11 C        2.5270    -1.9370     0.7600 C.3   1 <1>  -0.1600 
 12 C       -1.9580     0.9520     2.4050 C.ar  1 <1>  -0.1500 
 13 C       -3.4720    -0.3120     1.0510 C.ar  1 <1>  -0.1500 
 14 C        3.8110    -1.6410    -0.0330 C.3   1 <1>  -0.0190 
 15 C       -3.1750     0.3150     2.2470 C.ar  1 <1>  -0.1500 
 16 C        5.0660    -1.9430     0.7860 C.2   1 <1>   0.5690 
 17 O        5.2200    -1.3830     1.8430 O.2   1 <1>  -0.5700 
 18 N        5.9640    -2.8390     0.2670 N.am  1 <1>  -0.5470 
 19 C        7.1810    -3.3290     0.7620 C.ar  1 <1>   0.1170 
 20 C        7.6840    -3.0750     2.0280 C.ar  1 <1>  -0.1500 
 21 C        7.9700    -4.1370    -0.0390 C.ar  1 <1>  -0.1500 
 22 C        8.8960    -3.6140     2.4100 C.ar  1 <1>   0.1600 
 23 C        9.1690    -4.6280     0.4410 C.ar  1 <1>   0.1600 
 24 N        9.6540    -4.3870     1.6470 N.ar  1 <1>  -0.6200 
 25 H        2.5020     1.1900    -1.5240 H     1 <1>   0.0800 
 26 H        2.4460    -0.4250    -2.1850 H     1 <1>   0.0800 
 27 H        1.2190    -2.1910    -0.9290 H     1 <1>   0.0800 
 28 H        0.4080    -1.7530     0.5540 H     1 <1>   0.0800 
 29 H       -0.0960     1.4560     1.4940 H     1 <1>   0.1500 
 30 H       -2.7910    -0.7910    -0.9110 H     1 <1>   0.1500 
 31 H        3.8590     0.4810     0.3380 H     1 <1>   0.0800 
 32 H        4.6310     0.0130    -1.1460 H     1 <1>   0.0800 
 33 H        2.4900    -2.9790     1.0190 H     1 <1>   0.0800 
 34 H        2.5220    -1.3710     1.6760 H     1 <1>   0.0800 
 35 H       -1.7230     1.4430     3.3330 H     1 <1>   0.1500 
 36 H       -4.4200    -0.8070     0.9230 H     1 <1>   0.1500 
 37 H        3.8120    -2.2730    -0.9030 H     1 <1>   0.0800 
 38 H       -3.8900     0.3090     3.0520 H     1 <1>   0.1500 
 39 H        5.7100    -3.2040    -0.6480 H     1 <1>   0.3700 
 40 H        7.1470    -2.4630     2.7260 H     1 <1>   0.1500 
 41 H        7.6590    -4.3870    -1.0340 H     1 <1>   0.1500 
 42 H        9.2650    -3.4000     3.3990 H     1 <1>   0.1500 
 43 H        9.7670    -5.2540    -0.2010 H     1 <1>   0.1500 
@<TRIPOS>BOND
  1   1   2  2   
  2   1   3  2   
  3   1   4  am  
  4   1   5  1   
  5   4   6  1   
  6   4   7  1   
  7   5   8  ar  
  8   5   9  ar  
  9   6  10  1   
 10   6  25  1   
 11   6  26  1   
 12   7  11  1   
 13   7  27  1   
 14   7  28  1   
 15   8  12  ar  
 16   8  29  1   
 17   9  13  ar  
 18   9  30  1   
 19  10  14  1   
 20  10  31  1   
 21  10  32  1   
 22  11  14  1   
 23  11  33  1   
 24  11  34  1   
 25  12  15  ar  
 26  12  35  1   
 27  13  15  ar  
 28  13  36  1   
 29  14  16  1   
 30  14  37  1   
 31  15  38  1   
 32  16  17  2   
 33  16  18  am  
 34  18  19  1   
 35  18  39  1   
 36  19  20  ar  
 37  19  21  ar  
 38  20  22  ar  
 39  20  40  1   
 40  21  23  ar  
 41  21  41  1   
 42  22  24  ar  
 43  22  42  1   
 44  23  24  ar  
 45  23  43  1   
@<TRIPOS>SUBSTRUCTURE
  1 ****  11 GROUP 4 **** **** 0

# MOE 2024.06 (io_trps.svl 2023.06)
