@<TRIPOS>MOLECULE
2-[(Z)-Cyclohexylimino]-6-methyl-10-oxo-1,10-dihydro-2H-1,9,10a-triaza-anthracen
62 66 1 0 0 
SMALL
USER_CHARGES


@<TRIPOS>ATOM
  1 O       -0.9770    -0.7640     1.3270 O.2   1 <1>  -0.5700 
  2 C       -0.6360    -1.8270     0.8630 C.2   1 <1>   0.8650 
  3 N       -1.6230    -2.6700     0.3180 N.pl3 1 <1>  -0.5760 
  4 C        0.7380    -2.2140     0.8610 C.ar  1 <1>   0.0860 
  5 C       -1.2680    -3.8500    -0.2450 C.cat 1 <1>   0.7390 
  6 C       -2.9550    -2.3140     0.3430 C.2   1 <1>   0.1910 
  7 C        1.0310    -3.4330     0.2640 C.ar  1 <1>   0.6590 
  8 C        1.7960    -1.4910     1.3970 C.ar  1 <1>  -0.1500 
  9 N        0.0290    -4.1850    -0.2610 N.pl3 1 <1>  -0.6530 
 10 C       -2.2460    -4.6900    -0.7920 C.2   1 <1>  -0.1800 
 11 C       -3.9280    -3.1200    -0.1850 C.2   1 <1>  -0.1380 
 12 N        2.2230    -3.9610     0.1500 N.ar  1 <1>  -0.6200 
 13 C        3.0760    -2.0150     1.3140 C.ar  1 <1>   0.0860 
 14 C       -3.5690    -4.3390    -0.7690 C.2   1 <1>  -0.1500 
 15 C       -5.3970    -2.7290    -0.1580 C.3   1 <1>  -0.1020 
 16 C        3.2290    -3.2660     0.6710 C.ar  1 <1>   0.4100 
 17 C        4.2050    -1.3120     1.8770 C.2   1 <1>   0.5440 
 18 N        4.4630    -3.8320     0.5550 N.pl3 1 <1>  -0.8690 
 19 O        5.0650    -1.8960     2.5020 O.2   1 <1>  -0.5700 
 20 N        4.3590     0.0330     1.7550 N.am  1 <1>  -0.7300 
 21 C        4.8200    -5.1530     0.0090 C.3   1 <1>   0.2890 
 22 C        4.0300     0.8790     0.5830 C.3   1 <1>   0.1400 
 23 C        5.0090    -6.1290     1.1730 C.3   1 <1>  -0.1600 
 24 C        6.1060    -5.0090    -0.8090 C.3   1 <1>  -0.1600 
 25 C        5.2940     1.5970     0.0820 C.3   1 <1>   0.2000 
 26 C        5.5000    -7.4980     0.6790 C.3   1 <1>  -0.1600 
 27 C        6.5980    -6.3740    -1.3130 C.3   1 <1>  -0.1600 
 28 O        5.9320     2.2360     1.1410 O.3   1 <1>  -0.5600 
 29 C        5.0340     2.7070    -0.9250 C.3   1 <1>  -0.1600 
 30 C        6.7840    -7.3590    -0.1510 C.3   1 <1>  -0.1600 
 31 C        6.7410     3.2690     0.6710 C.3   1 <1>   0.1200 
 32 C        6.2290     3.6230    -0.7240 C.3   1 <1>  -0.1600 
 33 H       -3.2290    -1.3710     0.7960 H     1 <1>   0.1500 
 34 H        1.6280    -0.5420     1.8820 H     1 <1>   0.1500 
 35 H        0.3460    -5.0650    -0.6700 H     1 <1>   0.4500 
 36 H       -1.9460    -5.6220    -1.2350 H     1 <1>   0.1500 
 37 H       -4.3310    -4.9790    -1.1880 H     1 <1>   0.1500 
 38 H       -5.9650    -3.4640     0.3850 H     1 <1>   0.0800 
 39 H       -5.7830    -2.6700    -1.1610 H     1 <1>   0.0800 
 40 H       -5.5390    -1.7730     0.3160 H     1 <1>   0.0800 
 41 H        5.2050    -3.4260     1.1510 H     1 <1>   0.4000 
 42 H        5.1570     0.4250     2.2760 H     1 <1>   0.3700 
 43 H        4.0380    -5.5150    -0.6370 H     1 <1>   0.0800 
 44 H        3.2980     1.6120     0.8750 H     1 <1>   0.0800 
 45 H        3.6210     0.2810    -0.2120 H     1 <1>   0.0800 
 46 H        4.0750    -6.2500     1.6910 H     1 <1>   0.0800 
 47 H        5.7300    -5.7260     1.8630 H     1 <1>   0.0800 
 48 H        6.8710    -4.5650    -0.1970 H     1 <1>   0.0800 
 49 H        5.9230    -4.3620    -1.6480 H     1 <1>   0.0800 
 50 H        5.9890     0.8820    -0.3270 H     1 <1>   0.0800 
 51 H        4.7350    -7.9570     0.0760 H     1 <1>   0.0800 
 52 H        5.6840    -8.1410     1.5220 H     1 <1>   0.0800 
 53 H        7.5330    -6.2500    -1.8330 H     1 <1>   0.0800 
 54 H        5.8850    -6.7770    -2.0120 H     1 <1>   0.0800 
 55 H        4.1260     3.2270    -0.6730 H     1 <1>   0.0800 
 56 H        4.9640     2.3310    -1.9310 H     1 <1>   0.0800 
 57 H        7.0700    -8.3220    -0.5370 H     1 <1>   0.0800 
 58 H        7.5810    -7.0110     0.4850 H     1 <1>   0.0800 
 59 H        7.7580     2.9160     0.6410 H     1 <1>   0.0800 
 60 H        6.6590     4.0970     1.3540 H     1 <1>   0.0800 
 61 H        5.9560     4.6610    -0.7900 H     1 <1>   0.0800 
 62 H        6.9970     3.4160    -1.4490 H     1 <1>   0.0800 
@<TRIPOS>BOND
  1   1   2  2   
  2   2   3  1   
  3   2   4  1   
  4   3   5  ar  
  5   3   6  1   
  6   4   7  ar  
  7   4   8  ar  
  8   5   9  ar  
  9   5  10  1   
 10   6  11  2   
 11   6  33  1   
 12   7   9  1   
 13   7  12  ar  
 14   8  13  ar  
 15   8  34  1   
 16   9  35  1   
 17  10  14  2   
 18  10  36  1   
 19  11  14  1   
 20  11  15  1   
 21  12  16  ar  
 22  13  16  ar  
 23  13  17  1   
 24  14  37  1   
 25  15  38  1   
 26  15  39  1   
 27  15  40  1   
 28  16  18  1   
 29  17  19  2   
 30  17  20  am  
 31  18  21  1   
 32  18  41  1   
 33  20  22  1   
 34  20  42  1   
 35  21  23  1   
 36  21  24  1   
 37  21  43  1   
 38  22  25  1   
 39  22  44  1   
 40  22  45  1   
 41  23  26  1   
 42  23  46  1   
 43  23  47  1   
 44  24  27  1   
 45  24  48  1   
 46  24  49  1   
 47  25  28  1   
 48  25  29  1   
 49  25  50  1   
 50  26  30  1   
 51  26  51  1   
 52  26  52  1   
 53  27  30  1   
 54  27  53  1   
 55  27  54  1   
 56  28  31  1   
 57  29  32  1   
 58  29  55  1   
 59  29  56  1   
 60  30  57  1   
 61  30  58  1   
 62  31  32  1   
 63  31  59  1   
 64  31  60  1   
 65  32  61  1   
 66  32  62  1   
@<TRIPOS>SUBSTRUCTURE
  1 ****  13 GROUP 4 **** **** 0

# MOE 2024.06 (io_trps.svl 2023.06)
