@<TRIPOS>MOLECULE
1,3,6-Trimethyl-2-oxo-2,3-dihydro-1H-benzoimidazole-5-sulfonic acid (2-ethoxy-et
43 44 1 0 0 
SMALL
USER_CHARGES


@<TRIPOS>ATOM
  1 S       -0.1500     0.4080    -0.4720 S.o2  1 <1>   1.4470 
  2 O       -0.7920     0.7040    -1.7330 O.2   1 <1>  -0.6500 
  3 O       -0.1050    -0.9580    -0.0020 O.2   1 <1>  -0.6500 
  4 N       -1.0230     1.1860     0.7330 N.am  1 <1>  -0.9140 
  5 C        1.5050     1.1610    -0.3800 C.ar  1 <1>  -0.0090 
  6 C       -2.4740     1.2190     0.5230 C.3   1 <1>   0.1960 
  7 C        1.7550     2.5100    -0.6980 C.ar  1 <1>  -0.1430 
  8 C        2.5740     0.3710     0.0320 C.ar  1 <1>  -0.1500 
  9 C       -3.1010    -0.1810     0.4630 C.3   1 <1>   0.1200 
 10 C        3.0350     3.0400    -0.6020 C.ar  1 <1>  -0.1500 
 11 C        0.6380     3.4370    -1.1630 C.3   1 <1>  -0.0970 
 12 C        3.8480     0.9050     0.1260 C.ar  1 <1>   0.1170 
 13 O       -4.4840    -0.0440     0.5670 O.3   1 <1>  -0.5600 
 14 C        4.0780     2.2300    -0.1870 C.ar  1 <1>   0.1170 
 15 N        5.0590     0.3380     0.5040 N.am  1 <1>  -0.4770 
 16 C       -5.2080    -1.2240     0.4260 C.3   1 <1>   0.1200 
 17 N        5.4310     2.4850    -0.0030 N.am  1 <1>  -0.4770 
 18 C        6.0110     1.3180     0.4160 C.2   1 <1>   0.6900 
 19 C        5.2890    -1.0680     0.9000 C.3   1 <1>   0.0600 
 20 C       -5.4670    -1.4810    -1.0570 C.3   1 <1>  -0.2400 
 21 C        6.1230     3.7710    -0.2270 C.3   1 <1>   0.0600 
 22 O        7.1980     1.1720     0.6710 O.2   1 <1>  -0.5700 
 23 H       -0.8440     0.6270     1.5640 H     1 <1>   0.4200 
 24 H       -2.6990     1.7480    -0.3890 H     1 <1>   0.0800 
 25 H       -2.9210     1.7590     1.3400 H     1 <1>   0.0800 
 26 H        2.4250    -0.6640     0.2820 H     1 <1>   0.1500 
 27 H       -2.7620    -0.7850     1.2870 H     1 <1>   0.0800 
 28 H       -2.8650    -0.6570    -0.4720 H     1 <1>   0.0800 
 29 H        3.2360     4.0670    -0.8430 H     1 <1>   0.1500 
 30 H        0.2240     3.0870    -2.0920 H     1 <1>   0.0800 
 31 H        1.0020     4.4360    -1.3210 H     1 <1>   0.0800 
 32 H       -0.1450     3.4850    -0.4280 H     1 <1>   0.0800 
 33 H       -6.1430    -1.0880     0.9410 H     1 <1>   0.0800 
 34 H       -4.6730    -2.0390     0.8870 H     1 <1>   0.0800 
 35 H        4.6900    -1.3020     1.7620 H     1 <1>   0.0800 
 36 H        6.3270    -1.2150     1.1420 H     1 <1>   0.0800 
 37 H        5.0210    -1.7200     0.0870 H     1 <1>   0.0800 
 38 H       -5.9630    -0.6330    -1.4950 H     1 <1>   0.0800 
 39 H       -6.1010    -2.3420    -1.1680 H     1 <1>   0.0800 
 40 H       -4.5490    -1.6710    -1.5830 H     1 <1>   0.0800 
 41 H        5.7000     4.5240     0.4140 H     1 <1>   0.0800 
 42 H        6.0090     4.0680    -1.2540 H     1 <1>   0.0800 
 43 H        7.1710     3.6670    -0.0050 H     1 <1>   0.0800 
@<TRIPOS>BOND
  1   1   2  2   
  2   1   3  2   
  3   1   4  am  
  4   1   5  1   
  5   4   6  1   
  6   4  23  1   
  7   5   7  ar  
  8   5   8  ar  
  9   6   9  1   
 10   6  24  1   
 11   6  25  1   
 12   7  10  ar  
 13   7  11  1   
 14   8  12  ar  
 15   8  26  1   
 16   9  13  1   
 17   9  27  1   
 18   9  28  1   
 19  10  14  ar  
 20  10  29  1   
 21  11  30  1   
 22  11  31  1   
 23  11  32  1   
 24  12  14  ar  
 25  12  15  1   
 26  13  16  1   
 27  14  17  1   
 28  15  18  am  
 29  15  19  1   
 30  16  20  1   
 31  16  33  1   
 32  16  34  1   
 33  17  18  am  
 34  17  21  1   
 35  18  22  2   
 36  19  35  1   
 37  19  36  1   
 38  19  37  1   
 39  20  38  1   
 40  20  39  1   
 41  20  40  1   
 42  21  41  1   
 43  21  42  1   
 44  21  43  1   
@<TRIPOS>SUBSTRUCTURE
  1 ****   5 GROUP 4 **** **** 0

# MOE 2024.06 (io_trps.svl 2023.06)
