@<TRIPOS>MOLECULE
3-Ethyl-1-[3-(4-methoxy-phenyl)-[1,2,4]oxadiazol-5-ylmethyl]-1-methyl-urea
39 40 1 0 0 
SMALL
USER_CHARGES


@<TRIPOS>ATOM
  1 O        0.0480     0.7780     1.0200 O.2   1 <1>  -0.5700 
  2 C        0.3650     1.7440     0.3530 C.2   1 <1>   0.6900 
  3 N        1.6160     1.8330    -0.1920 N.am  1 <1>  -0.6600 
  4 N       -0.5160     2.7540     0.1560 N.am  1 <1>  -0.7300 
  5 C        2.6840     0.8750     0.2350 C.3   1 <1>   0.3200 
  6 C        1.9840     2.7710    -1.2910 C.3   1 <1>   0.0600 
  7 C       -1.8830     2.8010     0.7020 C.3   1 <1>   0.1400 
  8 C        3.9820     1.5880     0.5850 C.2   1 <1>   0.2980 
  9 C       -2.7800     3.5280    -0.2930 C.3   1 <1>  -0.2400 
 10 O        4.0130     2.3380     1.6550 O.3   1 <1>  -0.0190 
 11 N        5.0660     1.5370    -0.0770 N.2   1 <1>  -0.5650 
 12 N        5.2210     2.8080     1.6760 N.2   1 <1>  -0.4100 
 13 C        5.8480     2.3380     0.6550 C.2   1 <1>   0.4620 
 14 C        7.2290     2.6230     0.3030 C.ar  1 <1>   0.0540 
 15 C        8.0080     3.4900     1.0730 C.ar  1 <1>  -0.1500 
 16 C        7.8370     2.0470    -0.8150 C.ar  1 <1>  -0.1500 
 17 C        9.3230     3.7730     0.7480 C.ar  1 <1>  -0.1500 
 18 C        9.1500     2.3250    -1.1470 C.ar  1 <1>  -0.1500 
 19 C        9.9040     3.1880    -0.3720 C.ar  1 <1>   0.0820 
 20 O       11.1820     3.4090    -0.7640 O.3   1 <1>  -0.3620 
 21 C       12.0340     4.2710    -0.0440 C.3   1 <1>   0.0400 
 22 H       -0.1540     3.6190    -0.2340 H     1 <1>   0.3700 
 23 H        2.8680     0.1830    -0.5660 H     1 <1>   0.0800 
 24 H        2.3690     0.3090     1.0940 H     1 <1>   0.0800 
 25 H        1.1090     3.0810    -1.8360 H     1 <1>   0.0800 
 26 H        2.6540     2.2860    -1.9800 H     1 <1>   0.0800 
 27 H        2.4730     3.6380    -0.8810 H     1 <1>   0.0800 
 28 H       -1.8730     3.3190     1.6460 H     1 <1>   0.0800 
 29 H       -2.2470     1.7990     0.8640 H     1 <1>   0.0800 
 30 H       -2.4410     4.5370    -0.4400 H     1 <1>   0.0800 
 31 H       -3.7850     3.5580     0.0850 H     1 <1>   0.0800 
 32 H       -2.7860     3.0070    -1.2340 H     1 <1>   0.0800 
 33 H        7.5750     3.9520     1.9430 H     1 <1>   0.1500 
 34 H        7.2740     1.3720    -1.4350 H     1 <1>   0.1500 
 35 H        9.8750     4.4470     1.3740 H     1 <1>   0.1500 
 36 H        9.6010     1.8720    -2.0120 H     1 <1>   0.1500 
 37 H       12.9880     4.2880    -0.5400 H     1 <1>   0.0800 
 38 H       12.1480     3.8930     0.9560 H     1 <1>   0.0800 
 39 H       11.6070     5.2580    -0.0380 H     1 <1>   0.0800 
@<TRIPOS>BOND
  1   1   2  2   
  2   2   3  am  
  3   2   4  am  
  4   3   5  1   
  5   3   6  1   
  6   4   7  1   
  7   4  22  1   
  8   5   8  1   
  9   5  23  1   
 10   5  24  1   
 11   6  25  1   
 12   6  26  1   
 13   6  27  1   
 14   7   9  1   
 15   7  28  1   
 16   7  29  1   
 17   8  10  1   
 18   8  11  2   
 19   9  30  1   
 20   9  31  1   
 21   9  32  1   
 22  10  12  1   
 23  11  13  1   
 24  12  13  2   
 25  13  14  1   
 26  14  15  ar  
 27  14  16  ar  
 28  15  17  ar  
 29  15  33  1   
 30  16  18  ar  
 31  16  34  1   
 32  17  19  ar  
 33  17  35  1   
 34  18  19  ar  
 35  18  36  1   
 36  19  20  1   
 37  20  21  1   
 38  21  37  1   
 39  21  38  1   
 40  21  39  1   
@<TRIPOS>SUBSTRUCTURE
  1 ****  11 GROUP 4 **** **** 0

# MOE 2024.06 (io_trps.svl 2023.06)
