@<TRIPOS>MOLECULE
7-Methyl-5-oxo-2,3-dihydro-1H,5H-pyrido[3,2,1-ij]quinoline-9-sulfonic acid cyclo
40 43 1 0 0 
SMALL
USER_CHARGES


@<TRIPOS>ATOM
  1 S        0.3630     0.5620    -1.4990 S.o2  1 <1>   1.4470 
  2 O       -0.2930    -0.0690    -2.6210 O.2   1 <1>  -0.6500 
  3 O        0.7330     1.9580    -1.5600 O.2   1 <1>  -0.6500 
  4 N       -0.6580     0.4710    -0.1700 N.am  1 <1>  -0.7890 
  5 C        1.7860    -0.4360    -0.9850 C.ar  1 <1>  -0.0090 
  6 C       -2.0390     0.7390    -0.4870 C.3   1 <1>   0.1310 
  7 C        3.0590     0.0960    -0.9130 C.ar  1 <1>  -0.1500 
  8 C        1.6240    -1.7770    -0.6490 C.ar  1 <1>  -0.1500 
  9 C       -3.0610     0.3880     0.5390 C.3   1 <1>  -0.2000 
 10 C       -2.9450    -0.4190    -0.7210 C.3   1 <1>  -0.2000 
 11 C        4.1720    -0.6550    -0.5160 C.ar  1 <1>   0.0280 
 12 C        2.6910    -2.5540    -0.2500 C.ar  1 <1>  -0.1430 
 13 C        3.9800    -2.0100    -0.1740 C.ar  1 <1>   0.1170 
 14 C        5.5000    -0.1030    -0.4440 C.2   1 <1>  -0.1670 
 15 C        2.4440    -4.0130     0.0980 C.3   1 <1>  -0.0170 
 16 N        5.0750    -2.7920     0.2400 N.am  1 <1>  -0.4770 
 17 C        6.5280    -0.8950    -0.0600 C.2   1 <1>  -0.1360 
 18 C        5.7510     1.3580    -0.7980 C.3   1 <1>  -0.1020 
 19 C        3.4810    -4.4990     1.1100 C.3   1 <1>  -0.1600 
 20 C        6.3510    -2.2640     0.2830 C.2   1 <1>   0.6160 
 21 C        4.8930    -4.2290     0.5920 C.3   1 <1>   0.1400 
 22 O        7.3090    -2.9530     0.6010 O.2   1 <1>  -0.5700 
 23 H       -0.3440     1.2370     0.4200 H     1 <1>   0.4200 
 24 H       -2.1840     1.6340    -1.0750 H     1 <1>   0.1000 
 25 H        3.1870     1.1300    -1.1760 H     1 <1>   0.1500 
 26 H        0.6360    -2.2030    -0.7090 H     1 <1>   0.1500 
 27 H       -3.9250     1.0190     0.6560 H     1 <1>   0.1000 
 28 H       -2.7410    -0.0580     1.4640 H     1 <1>   0.1000 
 29 H       -2.5240    -1.4080    -0.6810 H     1 <1>   0.1000 
 30 H       -3.7130    -0.3250    -1.4690 H     1 <1>   0.1000 
 31 H        2.5120    -4.6020    -0.8010 H     1 <1>   0.0800 
 32 H        1.4580    -4.1380     0.5100 H     1 <1>   0.0800 
 33 H        7.5370    -0.5390     0.0090 H     1 <1>   0.1500 
 34 H        5.4670     1.5460    -1.8190 H     1 <1>   0.0800 
 35 H        6.7920     1.6060    -0.6900 H     1 <1>   0.0800 
 36 H        5.1840     2.0010    -0.1490 H     1 <1>   0.0800 
 37 H        3.3560    -5.5520     1.2850 H     1 <1>   0.0800 
 38 H        3.3450    -3.9860     2.0460 H     1 <1>   0.0800 
 39 H        5.6030    -4.5120     1.3520 H     1 <1>   0.0800 
 40 H        5.0860    -4.8220    -0.2850 H     1 <1>   0.0800 
@<TRIPOS>BOND
  1   1   2  2   
  2   1   3  2   
  3   1   4  am  
  4   1   5  1   
  5   4   6  1   
  6   4  23  1   
  7   5   7  ar  
  8   5   8  ar  
  9   6   9  1   
 10   6  10  1   
 11   6  24  1   
 12   7  11  ar  
 13   7  25  1   
 14   8  12  ar  
 15   8  26  1   
 16   9  10  1   
 17   9  27  1   
 18   9  28  1   
 19  10  29  1   
 20  10  30  1   
 21  11  13  ar  
 22  11  14  1   
 23  12  13  ar  
 24  12  15  1   
 25  13  16  1   
 26  14  17  2   
 27  14  18  1   
 28  15  19  1   
 29  15  31  1   
 30  15  32  1   
 31  16  20  am  
 32  16  21  1   
 33  17  20  1   
 34  17  33  1   
 35  18  34  1   
 36  18  35  1   
 37  18  36  1   
 38  19  21  1   
 39  19  37  1   
 40  19  38  1   
 41  20  22  2   
 42  21  39  1   
 43  21  40  1   
@<TRIPOS>SUBSTRUCTURE
  1 ****   5 GROUP 4 **** **** 0

# MOE 2024.06 (io_trps.svl 2023.06)
