@<TRIPOS>MOLECULE
Morpholine-4-carboxylic acid methyl-(3-m-tolyl-[1,2,4]oxadiazol-5-ylmethyl)-amid
43 45 1 0 0 
SMALL
USER_CHARGES


@<TRIPOS>ATOM
  1 O        0.0600     0.9550    -1.0500 O.2   1 <1>  -0.5700 
  2 C        0.5080     1.3380     0.0150 C.2   1 <1>   0.6900 
  3 N        0.0100     2.4690     0.6040 N.am  1 <1>  -0.6600 
  4 N        1.5470     0.6560     0.5850 N.am  1 <1>  -0.6600 
  5 C       -1.3270     2.9940     0.2020 C.3   1 <1>   0.1400 
  6 C        0.9350     3.5540     1.0470 C.3   1 <1>   0.1400 
  7 C        2.6330     0.1420    -0.2920 C.3   1 <1>   0.3200 
  8 C        1.7730     0.5690     2.0530 C.3   1 <1>   0.0600 
  9 C       -1.1700     4.1570    -0.7920 C.3   1 <1>   0.1200 
 10 C        0.9670     4.6910     0.0120 C.3   1 <1>   0.1200 
 11 C        3.7240     1.1910    -0.4430 C.2   1 <1>   0.2980 
 12 O       -0.3290     5.1450    -0.2620 O.3   1 <1>  -0.5600 
 13 O        3.4400     2.2900    -1.0940 O.3   1 <1>  -0.0190 
 14 N        4.9030     1.1260     0.0250 N.2   1 <1>  -0.5650 
 15 N        4.5270     2.9900    -1.0220 N.2   1 <1>  -0.4100 
 16 C        5.3980     2.3050    -0.3680 C.2   1 <1>   0.4620 
 17 C        6.7550     2.7290    -0.0640 C.ar  1 <1>   0.0540 
 18 C        7.2410     3.9650    -0.4970 C.ar  1 <1>  -0.1500 
 19 C        7.6280     1.9260     0.6730 C.ar  1 <1>  -0.1500 
 20 C        8.5280     4.3870    -0.2120 C.ar  1 <1>  -0.1440 
 21 C        8.9160     2.3360     0.9620 C.ar  1 <1>  -0.1500 
 22 C        9.3670     3.5650     0.5200 C.ar  1 <1>  -0.1500 
 23 C        9.0270     5.7350    -0.6990 C.3   1 <1>  -0.0970 
 24 H       -1.8510     3.3390     1.0750 H     1 <1>   0.0800 
 25 H       -1.9140     2.2110    -0.2490 H     1 <1>   0.0800 
 26 H        1.9330     3.1740     1.1730 H     1 <1>   0.0800 
 27 H        0.6030     3.9410     1.9940 H     1 <1>   0.0800 
 28 H        2.2450    -0.1050    -1.2650 H     1 <1>   0.0800 
 29 H        3.0490    -0.7510     0.1380 H     1 <1>   0.0800 
 30 H        0.9240     0.9630     2.5850 H     1 <1>   0.0800 
 31 H        2.6500     1.1290     2.3250 H     1 <1>   0.0800 
 32 H        1.9070    -0.4600     2.3390 H     1 <1>   0.0800 
 33 H       -2.1250     4.6080    -0.9910 H     1 <1>   0.0800 
 34 H       -0.7510     3.8040    -1.7190 H     1 <1>   0.0800 
 35 H        1.4170     4.3540    -0.9060 H     1 <1>   0.0800 
 36 H        1.5350     5.5230     0.3890 H     1 <1>   0.0800 
 37 H        6.5930     4.6050    -1.0700 H     1 <1>   0.1500 
 38 H        7.2940     0.9660     1.0250 H     1 <1>   0.1500 
 39 H        9.5700     1.6980     1.5320 H     1 <1>   0.1500 
 40 H       10.3710     3.8790     0.7470 H     1 <1>   0.1500 
 41 H        8.2050     6.3680    -0.9830 H     1 <1>   0.0800 
 42 H        9.6690     5.6000    -1.5510 H     1 <1>   0.0800 
 43 H        9.5820     6.2280     0.0790 H     1 <1>   0.0800 
@<TRIPOS>BOND
  1   1   2  2   
  2   2   3  am  
  3   2   4  am  
  4   3   5  1   
  5   3   6  1   
  6   4   7  1   
  7   4   8  1   
  8   5   9  1   
  9   5  24  1   
 10   5  25  1   
 11   6  10  1   
 12   6  26  1   
 13   6  27  1   
 14   7  11  1   
 15   7  28  1   
 16   7  29  1   
 17   8  30  1   
 18   8  31  1   
 19   8  32  1   
 20   9  12  1   
 21   9  33  1   
 22   9  34  1   
 23  10  12  1   
 24  10  35  1   
 25  10  36  1   
 26  11  13  1   
 27  11  14  2   
 28  13  15  1   
 29  14  16  1   
 30  15  16  2   
 31  16  17  1   
 32  17  18  ar  
 33  17  19  ar  
 34  18  20  ar  
 35  18  37  1   
 36  19  21  ar  
 37  19  38  1   
 38  20  22  ar  
 39  20  23  1   
 40  21  22  ar  
 41  21  39  1   
 42  22  40  1   
 43  23  41  1   
 44  23  42  1   
 45  23  43  1   
@<TRIPOS>SUBSTRUCTURE
  1 ****  13 GROUP 4 **** **** 0

# MOE 2024.06 (io_trps.svl 2023.06)
