@<TRIPOS>MOLECULE
2-(4-Bromo-phenyl)-5-tert-butyl-2H-pyrazol-3-ylamine
33 34 1 0 0 
SMALL
USER_CHARGES


@<TRIPOS>ATOM
  1 BR      -0.3140    -0.3030    -0.8600 Br    1 <1>  -0.1110 
  2 C       -1.4740     1.2110    -0.5970 C.ar  1 <1>   0.1110 
  3 C       -1.1690     2.4010    -1.2280 C.ar  1 <1>  -0.1500 
  4 C       -2.5830     1.0680     0.2140 C.ar  1 <1>  -0.1500 
  5 C       -2.0060     3.4860    -1.0340 C.ar  1 <1>  -0.1500 
  6 C       -3.4110     2.1610     0.3990 C.ar  1 <1>  -0.1500 
  7 C       -3.1320     3.3830    -0.2140 C.ar  1 <1>  -0.0230 
  8 N       -3.9890     4.5020    -0.0070 N.pl3 1 <1>   0.5930 
  9 N       -5.3500     4.3990    -0.0370 N.2   1 <1>  -0.7070 
 10 C       -3.6220     5.8010     0.2680 C.2   1 <1>  -0.0680 
 11 C       -5.8030     5.5960     0.1850 C.2   1 <1>   0.1080 
 12 N       -2.3150     6.3090     0.4220 N.pl3 1 <1>  -0.8840 
 13 C       -4.7670     6.5080     0.3800 C.2   1 <1>  -0.1500 
 14 C       -7.3100     5.9190     0.2200 C.3   1 <1>   0.1810 
 15 C       -7.9860     5.0810     1.3150 C.3   1 <1>  -0.2400 
 16 C       -7.5770     7.4060     0.5110 C.3   1 <1>  -0.2400 
 17 C       -7.9360     5.5710    -1.1390 C.3   1 <1>  -0.2400 
 18 H       -0.3000     2.4740    -1.8570 H     1 <1>   0.1500 
 19 H       -2.7940     0.1240     0.6850 H     1 <1>   0.1500 
 20 H       -1.7900     4.4210    -1.5240 H     1 <1>   0.1500 
 21 H       -4.2870     2.0720     1.0210 H     1 <1>   0.1500 
 22 H       -2.2500     7.1990     0.9290 H     1 <1>   0.4000 
 23 H       -1.6170     5.6410     0.7710 H     1 <1>   0.4000 
 24 H       -4.8620     7.5580     0.5810 H     1 <1>   0.1500 
 25 H       -7.5490     5.3010     2.2720 H     1 <1>   0.0800 
 26 H       -7.8490     4.0330     1.1160 H     1 <1>   0.0800 
 27 H       -9.0410     5.2860     1.3590 H     1 <1>   0.0800 
 28 H       -7.1650     7.6800     1.4660 H     1 <1>   0.0800 
 29 H       -8.6340     7.6020     0.5300 H     1 <1>   0.0800 
 30 H       -7.1330     8.0220    -0.2490 H     1 <1>   0.0800 
 31 H       -7.7970     4.5260    -1.3530 H     1 <1>   0.0800 
 32 H       -7.4640     6.1390    -1.9200 H     1 <1>   0.0800 
 33 H       -8.9900     5.7840    -1.1420 H     1 <1>   0.0800 
@<TRIPOS>BOND
  1   1   2  1   
  2   2   3  ar  
  3   2   4  ar  
  4   3   5  ar  
  5   3  18  1   
  6   4   6  ar  
  7   4  19  1   
  8   5   7  ar  
  9   5  20  1   
 10   6   7  ar  
 11   6  21  1   
 12   7   8  1   
 13   8   9  1   
 14   8  10  1   
 15   9  11  2   
 16  10  12  1   
 17  10  13  2   
 18  11  13  1   
 19  11  14  1   
 20  12  22  1   
 21  12  23  1   
 22  13  24  1   
 23  14  15  1   
 24  14  16  1   
 25  14  17  1   
 26  15  25  1   
 27  15  26  1   
 28  15  27  1   
 29  16  28  1   
 30  16  29  1   
 31  16  30  1   
 32  17  31  1   
 33  17  32  1   
 34  17  33  1   
@<TRIPOS>SUBSTRUCTURE
  1 ****   8 GROUP 4 **** **** 0

# MOE 2024.06 (io_trps.svl 2023.06)
