@<TRIPOS>MOLECULE
1-Allyl-3-cyclohexyl-1-[3-(3,4-dimethoxy-phenyl)-[1,2,4]oxadiazol-5-ylmethyl]-ur
57 59 1 0 0 
SMALL
USER_CHARGES


@<TRIPOS>ATOM
  1 O        0.2060    -0.2650    -0.2580 O.2   1 <1>  -0.5700 
  2 C        0.5100     0.8770     0.0310 C.2   1 <1>   0.6900 
  3 N        1.8120     1.2030     0.2730 N.am  1 <1>  -0.6600 
  4 N       -0.4390     1.8390     0.1080 N.am  1 <1>  -0.7300 
  5 C        2.8910     0.2090    -0.0200 C.3   1 <1>   0.3200 
  6 C        2.2030     2.3710     1.0970 C.3   1 <1>   0.2780 
  7 C       -1.8690     1.6490    -0.1740 C.3   1 <1>   0.2200 
  8 C        4.1350     0.8410    -0.6300 C.2   1 <1>   0.2980 
  9 C        2.5390     3.5340     0.1840 C.2   1 <1>  -0.2880 
 10 C       -2.1970     2.2910    -1.5260 C.3   1 <1>  -0.1600 
 11 C       -2.6820     2.2870     0.9570 C.3   1 <1>  -0.1600 
 12 O        4.0780     1.2720    -1.8620 O.3   1 <1>  -0.0190 
 13 N        5.2560     0.9930    -0.0490 N.2   1 <1>  -0.5650 
 14 C        3.7050     4.1880     0.1680 C.2   1 <1>  -0.3000 
 15 C       -3.7020     2.2220    -1.8230 C.3   1 <1>  -0.1600 
 16 C       -4.1880     2.2180     0.6650 C.3   1 <1>  -0.1600 
 17 N        5.2650     1.7430    -2.0870 N.2   1 <1>  -0.4100 
 18 C        5.9620     1.5880    -1.0170 C.2   1 <1>   0.4620 
 19 C       -4.5210     2.8570    -0.6910 C.3   1 <1>  -0.1600 
 20 C        7.3450     1.9980    -0.8420 C.ar  1 <1>   0.0540 
 21 C        8.0290     1.7930     0.3560 C.ar  1 <1>  -0.1500 
 22 C        8.0520     2.6190    -1.8710 C.ar  1 <1>  -0.1500 
 23 C        9.3460     2.1770     0.5350 C.ar  1 <1>   0.0830 
 24 C        9.3650     3.0220    -1.7130 C.ar  1 <1>  -0.1500 
 25 O        9.8660     1.8920     1.7620 O.3   1 <1>  -0.3630 
 26 C       10.0330     2.8170    -0.5090 C.ar  1 <1>   0.0830 
 27 C       11.2190     1.5210     1.9070 C.3   1 <1>   0.0400 
 28 O       11.3170     3.2390    -0.3260 O.3   1 <1>  -0.3630 
 29 C       11.9940     4.0250    -1.2820 C.3   1 <1>   0.0400 
 30 H       -0.1260     2.8030     0.1530 H     1 <1>   0.3700 
 31 H        2.5340    -0.5420    -0.7020 H     1 <1>   0.0800 
 32 H        3.1650    -0.2840     0.8960 H     1 <1>   0.0800 
 33 H        3.0550     2.1210     1.7080 H     1 <1>   0.0800 
 34 H        1.3980     2.6450     1.7580 H     1 <1>   0.0800 
 35 H       -2.0960     0.5960    -0.2190 H     1 <1>   0.0800 
 36 H        1.7320     3.7880    -0.4800 H     1 <1>   0.1500 
 37 H       -1.6580     1.7750    -2.3010 H     1 <1>   0.0800 
 38 H       -1.8880     3.3210    -1.5220 H     1 <1>   0.0800 
 39 H       -2.3960     3.3180     1.0700 H     1 <1>   0.0800 
 40 H       -2.4750     1.7700     1.8770 H     1 <1>   0.0800 
 41 H        4.5410     3.9580     0.8080 H     1 <1>   0.1500 
 42 H        3.9260     5.0060    -0.4950 H     1 <1>   0.1500 
 43 H       -3.9940     1.1920    -1.9390 H     1 <1>   0.0800 
 44 H       -3.9110     2.7290    -2.7490 H     1 <1>   0.0800 
 45 H       -4.7320     2.7220     1.4450 H     1 <1>   0.0800 
 46 H       -4.5020     1.1870     0.6580 H     1 <1>   0.0800 
 47 H       -5.5710     2.7380    -0.8960 H     1 <1>   0.0800 
 48 H       -4.3120     3.9120    -0.6480 H     1 <1>   0.0800 
 49 H        7.5260     1.3150     1.1770 H     1 <1>   0.1500 
 50 H        7.5610     2.7920    -2.8140 H     1 <1>   0.1500 
 51 H        9.8480     3.4960    -2.5460 H     1 <1>   0.1500 
 52 H       11.3220     0.9830     2.8320 H     1 <1>   0.0800 
 53 H       11.8220     2.4110     1.9370 H     1 <1>   0.0800 
 54 H       11.5040     0.8950     1.0800 H     1 <1>   0.0800 
 55 H       12.9570     4.2830    -0.8790 H     1 <1>   0.0800 
 56 H       11.4250     4.9190    -1.4650 H     1 <1>   0.0800 
 57 H       12.1180     3.4520    -2.1830 H     1 <1>   0.0800 
@<TRIPOS>BOND
  1   1   2  2   
  2   2   3  am  
  3   2   4  am  
  4   3   5  1   
  5   3   6  1   
  6   4   7  1   
  7   4  30  1   
  8   5   8  1   
  9   5  31  1   
 10   5  32  1   
 11   6   9  1   
 12   6  33  1   
 13   6  34  1   
 14   7  10  1   
 15   7  11  1   
 16   7  35  1   
 17   8  12  1   
 18   8  13  2   
 19   9  14  2   
 20   9  36  1   
 21  10  15  1   
 22  10  37  1   
 23  10  38  1   
 24  11  16  1   
 25  11  39  1   
 26  11  40  1   
 27  12  17  1   
 28  13  18  1   
 29  14  41  1   
 30  14  42  1   
 31  15  19  1   
 32  15  43  1   
 33  15  44  1   
 34  16  19  1   
 35  16  45  1   
 36  16  46  1   
 37  17  18  2   
 38  18  20  1   
 39  19  47  1   
 40  19  48  1   
 41  20  21  ar  
 42  20  22  ar  
 43  21  23  ar  
 44  21  49  1   
 45  22  24  ar  
 46  22  50  1   
 47  23  25  1   
 48  23  26  ar  
 49  24  26  ar  
 50  24  51  1   
 51  25  27  1   
 52  26  28  1   
 53  27  52  1   
 54  27  53  1   
 55  27  54  1   
 56  28  29  1   
 57  29  55  1   
 58  29  56  1   
 59  29  57  1   
@<TRIPOS>SUBSTRUCTURE
  1 ****   8 GROUP 4 **** **** 0

# MOE 2024.06 (io_trps.svl 2023.06)
