@<TRIPOS>MOLECULE
1-Cyclohexyl-3-[3-(3,4-dimethoxy-phenyl)-[1,2,4]oxadiazol-5-ylmethyl]-urea
50 52 1 0 0 
SMALL
USER_CHARGES


@<TRIPOS>ATOM
  1 O        0.1710     0.9500     1.8660 O.2   1 <1>  -0.5700 
  2 C        0.5500     1.1530     0.7310 C.2   1 <1>   0.6900 
  3 N       -0.3120     1.4520    -0.2620 N.am  1 <1>  -0.7300 
  4 N        1.8600     1.0830     0.4260 N.am  1 <1>  -0.7300 
  5 C       -1.7700     1.5750    -0.1090 C.3   1 <1>   0.2200 
  6 C        2.9300     0.8410     1.4270 C.3   1 <1>   0.3200 
  7 C       -2.4520     0.5700    -1.0430 C.3   1 <1>  -0.1600 
  8 C       -2.1840     3.0120    -0.4390 C.3   1 <1>  -0.1600 
  9 C        4.1220     1.7550     1.1910 C.2   1 <1>   0.2980 
 10 C       -3.9800     0.7260    -1.0050 C.3   1 <1>  -0.1600 
 11 C       -3.7110     3.1730    -0.4010 C.3   1 <1>  -0.1600 
 12 O        3.9940     3.0290     1.4540 O.3   1 <1>  -0.0190 
 13 N        5.2580     1.4020     0.7480 N.2   1 <1>  -0.5650 
 14 C       -4.3990     2.1660    -1.3330 C.3   1 <1>  -0.1600 
 15 N        5.1500     3.5310     1.1510 N.2   1 <1>  -0.4100 
 16 C        5.9020     2.5740     0.7340 C.2   1 <1>   0.4620 
 17 C        7.2810     2.7110     0.2950 C.ar  1 <1>   0.0540 
 18 C        8.0350     1.6150    -0.1210 C.ar  1 <1>  -0.1500 
 19 C        7.9130     3.9550     0.2710 C.ar  1 <1>  -0.1500 
 20 C        9.3490     1.7320    -0.5390 C.ar  1 <1>   0.0830 
 21 C        9.2210     4.0990    -0.1530 C.ar  1 <1>  -0.1500 
 22 O        9.9450     0.5600    -0.8990 O.3   1 <1>  -0.3630 
 23 C        9.9590     2.9960    -0.5730 C.ar  1 <1>   0.0830 
 24 C       11.3140     0.3350    -0.6460 C.3   1 <1>   0.0400 
 25 O       11.2390     3.1270    -1.0260 O.3   1 <1>  -0.3630 
 26 C       11.8310     4.3870    -1.2520 C.3   1 <1>   0.0400 
 27 H        0.0460     1.6430    -1.1920 H     1 <1>   0.3700 
 28 H        2.1670     1.2480    -0.5290 H     1 <1>   0.3700 
 29 H       -2.0510     1.3540     0.9090 H     1 <1>   0.0800 
 30 H        3.2510    -0.1820     1.3520 H     1 <1>   0.0800 
 31 H        2.5550     1.0040     2.4230 H     1 <1>   0.0800 
 32 H       -2.1900    -0.4290    -0.7400 H     1 <1>   0.0800 
 33 H       -2.1100     0.7240    -2.0510 H     1 <1>   0.0800 
 34 H       -1.8290     3.2740    -1.4200 H     1 <1>   0.0800 
 35 H       -1.7380     3.6820     0.2760 H     1 <1>   0.0800 
 36 H       -4.3400     0.4660    -0.0240 H     1 <1>   0.0800 
 37 H       -4.4300     0.0490    -1.7110 H     1 <1>   0.0800 
 38 H       -3.9760     4.1750    -0.6920 H     1 <1>   0.0800 
 39 H       -4.0590     3.0200     0.6070 H     1 <1>   0.0800 
 40 H       -5.4670     2.2600    -1.2390 H     1 <1>   0.0800 
 41 H       -4.1380     2.3900    -2.3540 H     1 <1>   0.0800 
 42 H        7.5920     0.6350    -0.1180 H     1 <1>   0.1500 
 43 H        7.3670     4.8270     0.5890 H     1 <1>   0.1500 
 44 H        9.6440     5.0850    -0.1480 H     1 <1>   0.1500 
 45 H       11.4830    -0.7260    -0.6380 H     1 <1>   0.0800 
 46 H       11.5710     0.7580     0.3090 H     1 <1>   0.0800 
 47 H       11.8910     0.7880    -1.4320 H     1 <1>   0.0800 
 48 H       12.8050     4.2260    -1.6770 H     1 <1>   0.0800 
 49 H       11.9250     4.9030    -0.3130 H     1 <1>   0.0800 
 50 H       11.2190     4.9430    -1.9400 H     1 <1>   0.0800 
@<TRIPOS>BOND
  1   1   2  2   
  2   2   3  am  
  3   2   4  am  
  4   3   5  1   
  5   3  27  1   
  6   4   6  1   
  7   4  28  1   
  8   5   7  1   
  9   5   8  1   
 10   5  29  1   
 11   6   9  1   
 12   6  30  1   
 13   6  31  1   
 14   7  10  1   
 15   7  32  1   
 16   7  33  1   
 17   8  11  1   
 18   8  34  1   
 19   8  35  1   
 20   9  12  1   
 21   9  13  2   
 22  10  14  1   
 23  10  36  1   
 24  10  37  1   
 25  11  14  1   
 26  11  38  1   
 27  11  39  1   
 28  12  15  1   
 29  13  16  1   
 30  14  40  1   
 31  14  41  1   
 32  15  16  2   
 33  16  17  1   
 34  17  18  ar  
 35  17  19  ar  
 36  18  20  ar  
 37  18  42  1   
 38  19  21  ar  
 39  19  43  1   
 40  20  22  1   
 41  20  23  ar  
 42  21  23  ar  
 43  21  44  1   
 44  22  24  1   
 45  23  25  1   
 46  24  45  1   
 47  24  46  1   
 48  24  47  1   
 49  25  26  1   
 50  26  48  1   
 51  26  49  1   
 52  26  50  1   
@<TRIPOS>SUBSTRUCTURE
  1 ****   9 GROUP 4 **** **** 0

# MOE 2024.06 (io_trps.svl 2023.06)
