@<TRIPOS>MOLECULE
1-(Furan-2-carbonyl)-piperidine-4-carboxylic acid (4-bromo-phenyl)-amide
40 42 1 0 0 
SMALL
USER_CHARGES


@<TRIPOS>ATOM
  1 BR       0.4930    -0.7010    -0.5370 Br    1 <1>  -0.1110 
  2 C       -1.0250    -1.8470    -0.2310 C.ar  1 <1>   0.1110 
  3 C       -0.8590    -2.9840     0.5360 C.ar  1 <1>  -0.1500 
  4 C       -2.2420    -1.5060    -0.7860 C.ar  1 <1>  -0.1500 
  5 C       -1.9540    -3.8020     0.7500 C.ar  1 <1>  -0.1500 
  6 C       -3.3280    -2.3350    -0.5620 C.ar  1 <1>  -0.1500 
  7 C       -3.1990    -3.4930     0.2050 C.ar  1 <1>   0.1170 
  8 N       -4.2760    -4.3560     0.4680 N.am  1 <1>  -0.5470 
  9 C       -5.4500    -4.5580    -0.2070 C.2   1 <1>   0.5690 
 10 O       -5.7310    -3.9890    -1.2330 O.2   1 <1>  -0.5700 
 11 C       -6.4310    -5.5740     0.3820 C.3   1 <1>  -0.0190 
 12 C       -6.1460    -6.9890    -0.1510 C.3   1 <1>  -0.1600 
 13 C       -7.9040    -5.2050     0.1100 C.3   1 <1>  -0.1600 
 14 C       -7.1140    -8.0180     0.4400 C.3   1 <1>   0.1400 
 15 C       -8.8720    -6.2410     0.6880 C.3   1 <1>   0.1400 
 16 N       -8.5200    -7.5980     0.1830 N.am  1 <1>  -0.6600 
 17 C       -9.3630    -8.3490    -0.6210 C.2   1 <1>   0.7150 
 18 O       -8.8750    -9.2340    -1.3040 O.2   1 <1>  -0.5700 
 19 C      -10.7940    -8.1250    -0.6440 C.2   1 <1>   0.0550 
 20 O      -11.4730    -8.1280    -1.7890 O.3   1 <1>  -0.2800 
 21 C      -11.6760    -7.8950     0.3710 C.2   1 <1>  -0.1500 
 22 C      -12.7420    -7.9060    -1.5340 C.2   1 <1>  -0.0100 
 23 C      -12.9370    -7.7510    -0.2080 C.2   1 <1>  -0.1500 
 24 H        0.1050    -3.2180     0.9520 H     1 <1>   0.1500 
 25 H       -2.3390    -0.6140    -1.3790 H     1 <1>   0.1500 
 26 H       -1.8360    -4.6910     1.3430 H     1 <1>   0.1500 
 27 H       -4.2800    -2.0710    -0.9860 H     1 <1>   0.1500 
 28 H       -4.1340    -4.9650     1.2700 H     1 <1>   0.3700 
 29 H       -6.2930    -5.5810     1.4490 H     1 <1>   0.0800 
 30 H       -5.1380    -7.2770     0.0860 H     1 <1>   0.0800 
 31 H       -6.2440    -6.9990    -1.2240 H     1 <1>   0.0800 
 32 H       -8.0720    -5.1360    -0.9520 H     1 <1>   0.0800 
 33 H       -8.1200    -4.2400     0.5330 H     1 <1>   0.0800 
 34 H       -6.9640    -8.0960     1.5030 H     1 <1>   0.0800 
 35 H       -6.9170    -8.9850     0.0100 H     1 <1>   0.0800 
 36 H       -9.8730    -5.9700     0.4040 H     1 <1>   0.0800 
 37 H       -8.8150    -6.2410     1.7630 H     1 <1>   0.0800 
 38 H      -11.4640    -7.8390     1.4240 H     1 <1>   0.1500 
 39 H      -13.4400    -7.8750    -2.3530 H     1 <1>   0.1500 
 40 H      -13.8560    -7.5600     0.3170 H     1 <1>   0.1500 
@<TRIPOS>BOND
  1   1   2  1   
  2   2   3  ar  
  3   2   4  ar  
  4   3   5  ar  
  5   3  24  1   
  6   4   6  ar  
  7   4  25  1   
  8   5   7  ar  
  9   5  26  1   
 10   6   7  ar  
 11   6  27  1   
 12   7   8  1   
 13   8   9  am  
 14   8  28  1   
 15   9  10  2   
 16   9  11  1   
 17  11  12  1   
 18  11  13  1   
 19  11  29  1   
 20  12  14  1   
 21  12  30  1   
 22  12  31  1   
 23  13  15  1   
 24  13  32  1   
 25  13  33  1   
 26  14  16  1   
 27  14  34  1   
 28  14  35  1   
 29  15  16  1   
 30  15  36  1   
 31  15  37  1   
 32  16  17  am  
 33  17  18  2   
 34  17  19  1   
 35  19  20  1   
 36  19  21  2   
 37  20  22  1   
 38  21  23  1   
 39  21  38  1   
 40  22  23  2   
 41  22  39  1   
 42  23  40  1   
@<TRIPOS>SUBSTRUCTURE
  1 ****  11 GROUP 4 **** **** 0

# MOE 2024.06 (io_trps.svl 2023.06)
