@<TRIPOS>MOLECULE
NONAME
57 59 1 0 0 
SMALL
USER_CHARGES


@<TRIPOS>ATOM
  1 O        1.1280     0.4460     2.6930 O.2   1 <1>  -0.5700 
  2 C        0.7840     1.1710     1.7870 C.2   1 <1>   0.5690 
  3 N        1.5310     1.2670     0.6360 N.am  1 <1>  -0.6600 
  4 C       -0.5070     1.9560     1.9980 C.3   1 <1>   0.0440 
  5 C        1.1270     2.0660    -0.5590 C.3   1 <1>   0.2200 
  6 C        2.8000     0.4640     0.5430 C.3   1 <1>   0.3200 
  7 C       -1.6380     1.4810     1.0910 C.ar  1 <1>  -0.1440 
  8 C        0.6210     1.1350    -1.6600 C.3   1 <1>  -0.2400 
  9 C        2.2650     2.9550    -1.0590 C.3   1 <1>  -0.2400 
 10 C        4.0270     1.2500     0.9900 C.2   1 <1>   0.2980 
 11 C       -2.2990     2.3690     0.2580 C.ar  1 <1>  -0.1500 
 12 C       -2.0120     0.1480     1.0860 C.ar  1 <1>  -0.1500 
 13 O        4.0310     1.7970     2.1780 O.3   1 <1>  -0.0190 
 14 N        5.0790     1.4390     0.3020 N.2   1 <1>  -0.5650 
 15 C       -3.3080     1.9450    -0.5900 C.ar  1 <1>   0.0830 
 16 C       -3.0170    -0.2950     0.2430 C.ar  1 <1>  -0.1500 
 17 N        5.1800     2.3910     2.2490 N.2   1 <1>  -0.4100 
 18 C        5.8050     2.1820     1.1440 C.2   1 <1>   0.4620 
 19 O       -3.8610     2.9320    -1.3510 O.3   1 <1>  -0.3630 
 20 C       -3.6710     0.5880    -0.6140 C.ar  1 <1>   0.0830 
 21 C        7.1310     2.6790     0.8130 C.ar  1 <1>   0.0540 
 22 C       -5.2220     2.8920    -1.7200 C.3   1 <1>   0.0400 
 23 O       -4.6340     0.1540    -1.4790 O.3   1 <1>  -0.3630 
 24 C        7.7380     2.3980    -0.4130 C.ar  1 <1>  -0.1500 
 25 C        7.8540     3.4630     1.7150 C.ar  1 <1>  -0.1500 
 26 C       -4.9460    -1.2130    -1.6310 C.3   1 <1>   0.0400 
 27 C        9.0000     2.8710    -0.7320 C.ar  1 <1>  -0.1430 
 28 C        9.1140     3.9400     1.4080 C.ar  1 <1>  -0.1500 
 29 C        9.6880     3.6450     0.1860 C.ar  1 <1>  -0.1500 
 30 C        9.6330     2.5470    -2.0730 C.3   1 <1>  -0.0970 
 31 H       -0.3060     3.0000     1.8490 H     1 <1>   0.0800 
 32 H       -0.8170     1.8370     3.0200 H     1 <1>   0.0800 
 33 H        0.3200     2.7240    -0.2940 H     1 <1>   0.0800 
 34 H        2.9510     0.1350    -0.4680 H     1 <1>   0.0800 
 35 H        2.7260    -0.4190     1.1520 H     1 <1>   0.0800 
 36 H        1.4090     0.5180    -2.0490 H     1 <1>   0.0800 
 37 H        0.2220     1.7190    -2.4700 H     1 <1>   0.0800 
 38 H       -0.1700     0.5110    -1.2830 H     1 <1>   0.0800 
 39 H        3.0620     2.3750    -1.4860 H     1 <1>   0.0800 
 40 H        2.6490     3.5570    -0.2540 H     1 <1>   0.0800 
 41 H        1.8950     3.6160    -1.8220 H     1 <1>   0.0800 
 42 H       -2.0370     3.4110     0.2530 H     1 <1>   0.1500 
 43 H       -1.5160    -0.5530     1.7360 H     1 <1>   0.1500 
 44 H       -3.2680    -1.3370     0.2730 H     1 <1>   0.1500 
 45 H       -5.5290     3.8890    -1.9780 H     1 <1>   0.0800 
 46 H       -5.8010     2.5290    -0.8900 H     1 <1>   0.0800 
 47 H       -5.3310     2.2460    -2.5730 H     1 <1>   0.0800 
 48 H        7.2080     1.7940    -1.1280 H     1 <1>   0.1500 
 49 H        7.4220     3.7020     2.6710 H     1 <1>   0.1500 
 50 H       -5.6910    -1.3010    -2.4020 H     1 <1>   0.0800 
 51 H       -5.3370    -1.5880    -0.7030 H     1 <1>   0.0800 
 52 H       -4.0570    -1.7450    -1.9210 H     1 <1>   0.0800 
 53 H        9.6500     4.5420     2.1220 H     1 <1>   0.1500 
 54 H       10.6700     4.0190    -0.0470 H     1 <1>   0.1500 
 55 H        8.8920     2.2050    -2.7730 H     1 <1>   0.0800 
 56 H       10.3730     1.7770    -1.9490 H     1 <1>   0.0800 
 57 H       10.1060     3.4230    -2.4810 H     1 <1>   0.0800 
@<TRIPOS>BOND
  1   1   2  2   
  2   2   3  am  
  3   2   4  1   
  4   3   5  1   
  5   3   6  1   
  6   4   7  1   
  7   4  31  1   
  8   4  32  1   
  9   5   8  1   
 10   5   9  1   
 11   5  33  1   
 12   6  10  1   
 13   6  34  1   
 14   6  35  1   
 15   7  11  ar  
 16   7  12  ar  
 17   8  36  1   
 18   8  37  1   
 19   8  38  1   
 20   9  39  1   
 21   9  40  1   
 22   9  41  1   
 23  10  13  1   
 24  10  14  2   
 25  11  15  ar  
 26  11  42  1   
 27  12  16  ar  
 28  12  43  1   
 29  13  17  1   
 30  14  18  1   
 31  15  19  1   
 32  15  20  ar  
 33  16  20  ar  
 34  16  44  1   
 35  17  18  2   
 36  18  21  1   
 37  19  22  1   
 38  20  23  1   
 39  21  24  ar  
 40  21  25  ar  
 41  22  45  1   
 42  22  46  1   
 43  22  47  1   
 44  23  26  1   
 45  24  27  ar  
 46  24  48  1   
 47  25  28  ar  
 48  25  49  1   
 49  26  50  1   
 50  26  51  1   
 51  26  52  1   
 52  27  29  ar  
 53  27  30  1   
 54  28  29  ar  
 55  28  53  1   
 56  29  54  1   
 57  30  55  1   
 58  30  56  1   
 59  30  57  1   
@<TRIPOS>SUBSTRUCTURE
  1 ****   3 GROUP 4 **** **** 0

# MOE 2024.06 (io_trps.svl 2023.06)
