@<TRIPOS>MOLECULE
1-Allyl-8-(3,5-dimethyl-pyrazol-1-yl)-3,7-dimethyl-3,7-dihydro-purine-2,6-dione
41 43 1 0 0 
SMALL
USER_CHARGES


@<TRIPOS>ATOM
  1 O        0.4070     0.0690     0.3230 O.2   1 <1>  -0.5700 
  2 C        1.4400     0.6660     0.0700 C.2   1 <1>   0.6900 
  3 N        1.4020     1.8220    -0.6950 N.am  1 <1>  -0.4200 
  4 N        2.6490     0.1820     0.5360 N.am  1 <1>  -0.4230 
  5 C        2.5620     2.4850    -1.0430 C.2   1 <1>   0.7150 
  6 C        0.0950     2.3920    -1.0970 C.3   1 <1>   0.2780 
  7 C        3.8180     0.8560     0.2040 C.2   1 <1>   0.2900 
  8 C        2.7530    -1.0520     1.3590 C.3   1 <1>   0.0600 
  9 O        2.5200     3.4770    -1.7510 O.2   1 <1>  -0.5700 
 10 C        3.7890     1.9700    -0.5550 C.2   1 <1>  -0.2370 
 11 C       -0.3120     3.4610    -0.0980 C.2   1 <1>  -0.2880 
 12 N        5.0560     0.5130     0.5660 N.2   1 <1>  -0.5650 
 13 N        5.0860     2.3630    -0.6820 N.pl3 1 <1>   0.0480 
 14 C       -1.3350     3.3650     0.7570 C.2   1 <1>  -0.3000 
 15 C        5.8090     1.4360     0.0100 C.2   1 <1>   0.1100 
 16 C        5.5610     3.5630    -1.4120 C.3   1 <1>   0.0160 
 17 N        7.2370     1.4830     0.1030 N.pl3 1 <1>   0.6460 
 18 N        8.0360     1.8830    -0.9300 N.2   1 <1>  -0.7070 
 19 C        8.0190     1.1900     1.1850 C.2   1 <1>  -0.3320 
 20 C        9.2470     1.8220    -0.4870 C.2   1 <1>   0.1080 
 21 C        9.3040     1.3960     0.8330 C.2   1 <1>  -0.1500 
 22 C        7.4920     0.7160     2.5320 C.3   1 <1>  -0.0600 
 23 C       10.4430     2.1800    -1.3390 C.3   1 <1>  -0.0590 
 24 H       -0.6540     1.6200    -1.1360 H     1 <1>   0.0800 
 25 H        0.1650     2.8210    -2.0830 H     1 <1>   0.0800 
 26 H        1.7810    -1.4510     1.5880 H     1 <1>   0.0800 
 27 H        3.2620    -0.8250     2.2790 H     1 <1>   0.0800 
 28 H        3.3180    -1.7920     0.8210 H     1 <1>   0.0800 
 29 H        0.3260     4.3270    -0.1450 H     1 <1>   0.1500 
 30 H       -1.6070     4.1340     1.4590 H     1 <1>   0.1500 
 31 H       -1.9840     2.5080     0.8310 H     1 <1>   0.1500 
 32 H        5.7720     3.2950    -2.4310 H     1 <1>   0.0800 
 33 H        6.4530     3.9450    -0.9520 H     1 <1>   0.0800 
 34 H        4.8100     4.3300    -1.3900 H     1 <1>   0.0800 
 35 H       10.1970     1.2680     1.4190 H     1 <1>   0.1500 
 36 H        7.0100    -0.2390     2.4240 H     1 <1>   0.0800 
 37 H        6.7790     1.4210     2.9220 H     1 <1>   0.0800 
 38 H        8.2990     0.6160     3.2360 H     1 <1>   0.0800 
 39 H       10.4600     1.5540    -2.2120 H     1 <1>   0.0800 
 40 H       11.3540     2.0400    -0.7880 H     1 <1>   0.0800 
 41 H       10.3700     3.2060    -1.6470 H     1 <1>   0.0800 
@<TRIPOS>BOND
  1   1   2  2   
  2   2   3  am  
  3   2   4  am  
  4   3   5  am  
  5   3   6  1   
  6   4   7  1   
  7   4   8  1   
  8   5   9  2   
  9   5  10  1   
 10   6  11  1   
 11   6  24  1   
 12   6  25  1   
 13   7  10  2   
 14   7  12  1   
 15   8  26  1   
 16   8  27  1   
 17   8  28  1   
 18  10  13  1   
 19  11  14  2   
 20  11  29  1   
 21  12  15  2   
 22  13  15  1   
 23  13  16  1   
 24  14  30  1   
 25  14  31  1   
 26  15  17  1   
 27  16  32  1   
 28  16  33  1   
 29  16  34  1   
 30  17  18  1   
 31  17  19  1   
 32  18  20  2   
 33  19  21  2   
 34  19  22  1   
 35  20  21  1   
 36  20  23  1   
 37  21  35  1   
 38  22  36  1   
 39  22  37  1   
 40  22  38  1   
 41  23  39  1   
 42  23  40  1   
 43  23  41  1   
@<TRIPOS>SUBSTRUCTURE
  1 ****  10 GROUP 4 **** **** 0

# MOE 2024.06 (io_trps.svl 2023.06)
