@<TRIPOS>MOLECULE
4-(4-Ethoxy-phenyl)-2,7-dimethyl-5-oxo-1,4,5,6,7,8-hexahydro-quinoline-3-carboxy
58 61 1 0 0 
SMALL
USER_CHARGES


@<TRIPOS>ATOM
  1 O        0.1440    -0.9460    -1.9660 O.2   1 <1>  -0.5700 
  2 C        0.2260    -1.8170    -1.1330 C.2   1 <1>   0.4950 
  3 C        1.4480    -2.2970    -0.5810 C.2   1 <1>  -0.1240 
  4 C       -1.0710    -2.4790    -0.6940 C.3   1 <1>  -0.0990 
  5 C        1.5230    -3.3510     0.2690 C.2   1 <1>  -0.0380 
  6 C        2.7250    -1.5630    -0.9960 C.3   1 <1>   0.3400 
  7 C       -0.9540    -3.1370     0.6930 C.3   1 <1>  -0.0800 
  8 N        2.7280    -3.8450     0.7090 N.pl3 1 <1>  -0.6000 
  9 C        0.2740    -4.0630     0.7650 C.3   1 <1>  -0.0220 
 10 C        4.0080    -2.2840    -0.5710 C.2   1 <1>  -0.1240 
 11 C        2.7380    -0.1720    -0.3560 C.ar  1 <1>  -0.1440 
 12 C       -2.2390    -3.8950     1.0490 C.3   1 <1>  -0.2400 
 13 C        3.9380    -3.3690     0.2490 C.2   1 <1>  -0.0380 
 14 C        5.1850    -1.6660    -1.0960 C.2   1 <1>   0.6160 
 15 C        2.7920     0.9670    -1.1450 C.ar  1 <1>  -0.1500 
 16 C        2.7100    -0.0350     1.0260 C.ar  1 <1>  -0.1500 
 17 C        5.1280    -4.1840     0.7300 C.3   1 <1>  -0.1020 
 18 O        5.2640    -1.3850    -2.2780 O.2   1 <1>  -0.5700 
 19 N        6.2160    -1.3730    -0.2460 N.am  1 <1>  -0.5470 
 20 C        2.8220     2.2240    -0.5680 C.ar  1 <1>  -0.1500 
 21 C        2.7410     1.2200     1.6050 C.ar  1 <1>  -0.1500 
 22 C        7.4840    -0.8640    -0.4080 C.ar  1 <1>   0.4270 
 23 C        2.8000     2.3580     0.8180 C.ar  1 <1>   0.0820 
 24 N        8.1960    -0.9220     0.7090 N.ar  1 <1>  -0.6200 
 25 C        7.9790    -0.3390    -1.6020 C.ar  1 <1>  -0.1500 
 26 O        2.8320     3.5480     1.4720 O.3   1 <1>  -0.3620 
 27 C        9.4290    -0.4480     0.6380 C.ar  1 <1>   0.1600 
 28 C        9.2640     0.1480    -1.6610 C.ar  1 <1>  -0.1500 
 29 C        2.9990     4.7830     0.8100 C.3   1 <1>   0.1200 
 30 C       10.0050     0.0870    -0.4990 C.ar  1 <1>  -0.1500 
 31 C        4.4750     4.9780     0.4610 C.3   1 <1>  -0.2400 
 32 H       -1.3320    -3.2150    -1.4320 H     1 <1>   0.0800 
 33 H       -1.8470    -1.7360    -0.6770 H     1 <1>   0.0800 
 34 H        2.7200    -1.4750    -2.0690 H     1 <1>   0.0800 
 35 H       -0.8140    -2.3500     1.4180 H     1 <1>   0.0800 
 36 H        2.7310    -4.6530     1.3420 H     1 <1>   0.4000 
 37 H        0.4150    -4.3710     1.7860 H     1 <1>   0.0800 
 38 H        0.1150    -4.9420     0.1660 H     1 <1>   0.0800 
 39 H       -2.4200    -4.6910     0.3480 H     1 <1>   0.0800 
 40 H       -3.0830    -3.2270     1.0330 H     1 <1>   0.0800 
 41 H       -2.1640    -4.3170     2.0360 H     1 <1>   0.0800 
 42 H        2.8090     0.8780    -2.2180 H     1 <1>   0.1500 
 43 H        2.6650    -0.9080     1.6540 H     1 <1>   0.1500 
 44 H        4.9350    -5.2320     0.5840 H     1 <1>   0.0800 
 45 H        5.2980    -4.0060     1.7760 H     1 <1>   0.0800 
 46 H        6.0250    -3.9470     0.1880 H     1 <1>   0.0800 
 47 H        6.0290    -1.5750     0.7310 H     1 <1>   0.3700 
 48 H        2.8640     3.0790    -1.2130 H     1 <1>   0.1500 
 49 H        2.7200     1.3270     2.6740 H     1 <1>   0.1500 
 50 H        7.3640    -0.3080    -2.4790 H     1 <1>   0.1500 
 51 H       10.0160    -0.4890     1.5400 H     1 <1>   0.1500 
 52 H        9.6710     0.5570    -2.5700 H     1 <1>   0.1500 
 53 H        2.6810     5.5510     1.4930 H     1 <1>   0.0800 
 54 H        2.3620     4.8140    -0.0550 H     1 <1>   0.0800 
 55 H       11.0160     0.4520    -0.4760 H     1 <1>   0.1500 
 56 H        5.0690     4.9520     1.3570 H     1 <1>   0.0800 
 57 H        4.6120     5.9330    -0.0120 H     1 <1>   0.0800 
 58 H        4.8140     4.2120    -0.2120 H     1 <1>   0.0800 
@<TRIPOS>BOND
  1   1   2  2   
  2   2   3  1   
  3   2   4  1   
  4   3   5  2   
  5   3   6  1   
  6   4   7  1   
  7   4  32  1   
  8   4  33  1   
  9   5   8  1   
 10   5   9  1   
 11   6  10  1   
 12   6  11  1   
 13   6  34  1   
 14   7   9  1   
 15   7  12  1   
 16   7  35  1   
 17   8  13  1   
 18   8  36  1   
 19   9  37  1   
 20   9  38  1   
 21  10  13  2   
 22  10  14  1   
 23  11  15  ar  
 24  11  16  ar  
 25  12  39  1   
 26  12  40  1   
 27  12  41  1   
 28  13  17  1   
 29  14  18  2   
 30  14  19  am  
 31  15  20  ar  
 32  15  42  1   
 33  16  21  ar  
 34  16  43  1   
 35  17  44  1   
 36  17  45  1   
 37  17  46  1   
 38  19  22  1   
 39  19  47  1   
 40  20  23  ar  
 41  20  48  1   
 42  21  23  ar  
 43  21  49  1   
 44  22  24  ar  
 45  22  25  ar  
 46  23  26  1   
 47  24  27  ar  
 48  25  28  ar  
 49  25  50  1   
 50  26  29  1   
 51  27  30  ar  
 52  27  51  1   
 53  28  30  ar  
 54  28  52  1   
 55  29  31  1   
 56  29  53  1   
 57  29  54  1   
 58  30  55  1   
 59  31  56  1   
 60  31  57  1   
 61  31  58  1   
@<TRIPOS>SUBSTRUCTURE
  1 ****  11 GROUP 4 **** **** 0

# MOE 2024.06 (io_trps.svl 2023.06)
