@<TRIPOS>MOLECULE
1-(Furan-2-carbonyl)-piperidine-4-carboxylic acid (3-chloro-2-methyl-phenyl)-ami
43 45 1 0 0 
SMALL
USER_CHARGES


@<TRIPOS>ATOM
  1 CL      -0.2680    -0.8810    -0.5020 Cl    1 <1>  -0.1770 
  2 C       -1.9320    -0.3390    -0.5490 C.ar  1 <1>   0.1770 
  3 C       -2.9760    -1.1890    -0.2000 C.ar  1 <1>  -0.1440 
  4 C       -2.1520     0.9680    -0.9410 C.ar  1 <1>  -0.1500 
  5 C       -4.2830    -0.6900    -0.2340 C.ar  1 <1>   0.1170 
  6 C       -2.7060    -2.6380     0.2120 C.3   1 <1>  -0.0970 
  7 C       -3.4440     1.4540    -0.9840 C.ar  1 <1>  -0.1500 
  8 N       -5.3560    -1.5080     0.1560 N.am  1 <1>  -0.5470 
  9 C       -4.4950     0.6290    -0.6290 C.ar  1 <1>  -0.1500 
 10 C       -6.6640    -1.5230    -0.2470 C.2   1 <1>   0.5690 
 11 O       -7.1060    -0.7690    -1.0800 O.2   1 <1>  -0.5700 
 12 C       -7.5810    -2.5640     0.4000 C.3   1 <1>  -0.0190 
 13 C       -7.3000    -3.9740    -0.1550 C.3   1 <1>  -0.1600 
 14 C       -9.0790    -2.2350     0.2340 C.3   1 <1>  -0.1600 
 15 C       -8.1990    -5.0250     0.5010 C.3   1 <1>   0.1400 
 16 C       -9.9790    -3.2970     0.8720 C.3   1 <1>   0.1400 
 17 N       -9.6280    -4.6410     0.3360 N.am  1 <1>  -0.6600 
 18 C      -10.4970    -5.4040    -0.4270 C.2   1 <1>   0.7150 
 19 O      -10.0280    -6.2640    -1.1530 O.2   1 <1>  -0.5700 
 20 C      -11.9330    -5.2200    -0.3590 C.2   1 <1>   0.0550 
 21 O      -12.6810    -5.2370    -1.4600 O.3   1 <1>  -0.2800 
 22 C      -12.7550    -5.0190     0.7100 C.2   1 <1>  -0.1500 
 23 C      -13.9370    -5.0510    -1.1260 C.2   1 <1>  -0.0100 
 24 C      -14.0540    -4.9070     0.2110 C.2   1 <1>  -0.1500 
 25 H       -1.3200     1.5930    -1.2090 H     1 <1>   0.1500 
 26 H       -1.7500    -2.9810    -0.1390 H     1 <1>   0.0800 
 27 H       -3.4440    -3.2970    -0.2080 H     1 <1>   0.0800 
 28 H       -2.7230    -2.7230     1.2840 H     1 <1>   0.0800 
 29 H       -3.6330     2.4690    -1.2890 H     1 <1>   0.1500 
 30 H       -5.0940    -2.2530     0.7970 H     1 <1>   0.3700 
 31 H       -5.4950     1.0240    -0.6590 H     1 <1>   0.1500 
 32 H       -7.3660    -2.5660     1.4530 H     1 <1>   0.0800 
 33 H       -6.2720    -4.2420     0.0110 H     1 <1>   0.0800 
 34 H       -7.4720    -3.9870    -1.2180 H     1 <1>   0.0800 
 35 H       -9.3220    -2.1640    -0.8130 H     1 <1>   0.0800 
 36 H       -9.2900    -1.2770     0.6780 H     1 <1>   0.0800 
 37 H       -7.9770    -5.0960     1.5520 H     1 <1>   0.0800 
 38 H       -8.0070    -5.9890     0.0610 H     1 <1>   0.0800 
 39 H      -11.0040    -3.0500     0.6580 H     1 <1>   0.0800 
 40 H       -9.8480    -3.2990     1.9400 H     1 <1>   0.0800 
 41 H      -12.4800    -4.9620     1.7480 H     1 <1>   0.1500 
 42 H      -14.6860    -5.0360    -1.8990 H     1 <1>   0.1500 
 43 H      -14.9430    -4.7450     0.7930 H     1 <1>   0.1500 
@<TRIPOS>BOND
  1   1   2  1   
  2   2   3  ar  
  3   2   4  ar  
  4   3   5  ar  
  5   3   6  1   
  6   4   7  ar  
  7   4  25  1   
  8   5   8  1   
  9   5   9  ar  
 10   6  26  1   
 11   6  27  1   
 12   6  28  1   
 13   7   9  ar  
 14   7  29  1   
 15   8  10  am  
 16   8  30  1   
 17   9  31  1   
 18  10  11  2   
 19  10  12  1   
 20  12  13  1   
 21  12  14  1   
 22  12  32  1   
 23  13  15  1   
 24  13  33  1   
 25  13  34  1   
 26  14  16  1   
 27  14  35  1   
 28  14  36  1   
 29  15  17  1   
 30  15  37  1   
 31  15  38  1   
 32  16  17  1   
 33  16  39  1   
 34  16  40  1   
 35  17  18  am  
 36  18  19  2   
 37  18  20  1   
 38  20  21  1   
 39  20  22  2   
 40  21  23  1   
 41  22  24  1   
 42  22  41  1   
 43  23  24  2   
 44  23  42  1   
 45  24  43  1   
@<TRIPOS>SUBSTRUCTURE
  1 ****  12 GROUP 4 **** **** 0

# MOE 2024.06 (io_trps.svl 2023.06)
