@<TRIPOS>MOLECULE
N-[2-(5-Mercapto-4-methyl-4H-[1,2,4]triazol-3-yl)-ethyl]-4-methoxy-benzamide
36 37 1 0 0 
SMALL
USER_CHARGES


@<TRIPOS>ATOM
  1 S       -0.2110     0.5020    -0.1330 S.3   1 <1>  -0.9360 
  2 C       -0.9630     1.8610     0.3340 C.cat 1 <1>   0.7360 
  3 N       -0.4760     2.7470     1.1740 N.pl3 1 <1>  -0.3930 
  4 N       -2.1520     2.2700    -0.0650 N.pl3 1 <1>  -0.7640 
  5 N       -1.3540     3.7800     1.3430 N.2   1 <1>  -0.2600 
  6 C       -2.3450     3.4660     0.5840 C.2   1 <1>   0.4850 
  7 C       -2.9770     1.5400    -1.0530 C.3   1 <1>   0.2740 
  8 C       -3.6150     4.2770     0.3980 C.3   1 <1>   0.0080 
  9 C       -3.4890     5.7000     0.9550 C.3   1 <1>   0.1400 
 10 N       -4.7670     6.4370     0.7880 N.am  1 <1>  -0.7300 
 11 C       -5.2200     6.9420    -0.4010 C.2   1 <1>   0.5440 
 12 O       -4.5930     6.6750    -1.4080 O.2   1 <1>  -0.5700 
 13 C       -6.4050     7.7810    -0.4580 C.ar  1 <1>   0.0860 
 14 C       -7.4300     7.6860     0.4890 C.ar  1 <1>  -0.1500 
 15 C       -6.5640     8.7240    -1.4740 C.ar  1 <1>  -0.1500 
 16 C       -8.5480     8.4990     0.4330 C.ar  1 <1>  -0.1500 
 17 C       -7.6780     9.5390    -1.5380 C.ar  1 <1>  -0.1500 
 18 C       -8.6790     9.4370    -0.5860 C.ar  1 <1>   0.0830 
 19 O       -9.7360    10.2700    -0.7140 O.3   1 <1>  -0.3630 
 20 C      -10.8200    10.2430     0.1870 C.3   1 <1>   0.0400 
 21 H        0.4420     2.6180     1.5970 H     1 <1>   0.4500 
 22 H       -2.6130     1.7440    -2.0450 H     1 <1>   0.0800 
 23 H       -4.0070     1.8370    -0.9800 H     1 <1>   0.0800 
 24 H       -2.9070     0.4800    -0.8730 H     1 <1>   0.0800 
 25 H       -4.4200     3.7670     0.8920 H     1 <1>   0.0800 
 26 H       -3.8280     4.3300    -0.6530 H     1 <1>   0.0800 
 27 H       -2.7080     6.2250     0.4290 H     1 <1>   0.0800 
 28 H       -3.2330     5.6690     2.0000 H     1 <1>   0.0800 
 29 H       -5.1910     6.7860     1.6500 H     1 <1>   0.3700 
 30 H       -7.3580     6.9600     1.2780 H     1 <1>   0.1500 
 31 H       -5.7970     8.8160    -2.2250 H     1 <1>   0.1500 
 32 H       -9.3090     8.3900     1.1830 H     1 <1>   0.1500 
 33 H       -7.7820    10.2610    -2.3280 H     1 <1>   0.1500 
 34 H      -11.5310    10.9870    -0.1240 H     1 <1>   0.0800 
 35 H      -10.4590    10.4710     1.1740 H     1 <1>   0.0800 
 36 H      -11.2740     9.2680     0.1570 H     1 <1>   0.0800 
@<TRIPOS>BOND
  1   1   2  1   
  2   2   3  ar  
  3   2   4  ar  
  4   3   5  1   
  5   3  21  1   
  6   4   6  1   
  7   4   7  1   
  8   5   6  2   
  9   6   8  1   
 10   7  22  1   
 11   7  23  1   
 12   7  24  1   
 13   8   9  1   
 14   8  25  1   
 15   8  26  1   
 16   9  10  1   
 17   9  27  1   
 18   9  28  1   
 19  10  11  am  
 20  10  29  1   
 21  11  12  2   
 22  11  13  1   
 23  13  14  ar  
 24  13  15  ar  
 25  14  16  ar  
 26  14  30  1   
 27  15  17  ar  
 28  15  31  1   
 29  16  18  ar  
 30  16  32  1   
 31  17  18  ar  
 32  17  33  1   
 33  18  19  1   
 34  19  20  1   
 35  20  34  1   
 36  20  35  1   
 37  20  36  1   
@<TRIPOS>SUBSTRUCTURE
  1 ****  10 GROUP 4 **** **** 0

# MOE 2024.06 (io_trps.svl 2023.06)
