@<TRIPOS>MOLECULE
1-(4-Ethoxy-phenyl)-5-oxo-pyrrolidine-3-carboxylic acid 4-methoxy-benzylamide
51 53 1 0 0 
SMALL
USER_CHARGES


@<TRIPOS>ATOM
  1 O        3.1580    -1.3410    -2.6080 O.2   1 <1>  -0.5700 
  2 C        3.5960    -1.3860    -1.4850 C.2   1 <1>   0.5690 
  3 N        3.0930    -2.0920    -0.4310 N.am  1 <1>  -0.4770 
  4 C        4.8270    -0.6170    -1.0950 C.3   1 <1>  -0.0990 
  5 C        1.8930    -2.8290    -0.3760 C.ar  1 <1>   0.1170 
  6 C        3.9020    -1.8530     0.7830 C.3   1 <1>   0.1400 
  7 C        5.2060    -1.2270     0.2630 C.3   1 <1>  -0.0190 
  8 C        1.8200    -4.0280     0.3270 C.ar  1 <1>  -0.1500 
  9 C        0.7460    -2.3720    -1.0160 C.ar  1 <1>  -0.1500 
 10 C        5.8410    -0.2490     1.2400 C.2   1 <1>   0.5690 
 11 C        0.6380    -4.7440     0.4020 C.ar  1 <1>  -0.1500 
 12 C       -0.4390    -3.0830    -0.9460 C.ar  1 <1>  -0.1500 
 13 O        5.4900    -0.2460     2.3940 O.2   1 <1>  -0.5700 
 14 N        6.8070     0.5890     0.7960 N.am  1 <1>  -0.7300 
 15 C       -0.5050    -4.2700    -0.2370 C.ar  1 <1>   0.0830 
 16 C        7.5230     1.5500     1.6490 C.3   1 <1>   0.2840 
 17 O       -1.7060    -4.9040    -0.2150 O.3   1 <1>  -0.3630 
 18 C        8.7430     2.0300     0.8840 C.ar  1 <1>  -0.1430 
 19 C       -1.8640    -6.1370     0.4470 C.3   1 <1>   0.1200 
 20 C        8.6700     3.1650     0.0900 C.ar  1 <1>  -0.1500 
 21 C        9.9390     1.3330     0.9670 C.ar  1 <1>  -0.1500 
 22 C       -3.3110    -6.5850     0.2700 C.3   1 <1>  -0.2400 
 23 C        9.7830     3.5960    -0.6110 C.ar  1 <1>  -0.1500 
 24 C       11.0540     1.7640     0.2680 C.ar  1 <1>  -0.1500 
 25 C       10.9790     2.9030    -0.5290 C.ar  1 <1>   0.0830 
 26 O       12.0200     3.3940    -1.2470 O.3   1 <1>  -0.3630 
 27 C       13.2880     2.7780    -1.2160 C.3   1 <1>   0.0400 
 28 H        4.5630     0.4210    -1.0040 H     1 <1>   0.0800 
 29 H        5.6040    -0.7410    -1.8270 H     1 <1>   0.0800 
 30 H        4.1010    -2.7640     1.3170 H     1 <1>   0.0800 
 31 H        3.3680    -1.1700     1.4220 H     1 <1>   0.0800 
 32 H        5.9040    -2.0270     0.0990 H     1 <1>   0.0800 
 33 H        2.6940    -4.4140     0.8160 H     1 <1>   0.1500 
 34 H        0.7790    -1.4540    -1.5750 H     1 <1>   0.1500 
 35 H        0.6270    -5.6620     0.9560 H     1 <1>   0.1500 
 36 H       -1.3200    -2.7210    -1.4440 H     1 <1>   0.1500 
 37 H        7.1360     0.5700    -0.1710 H     1 <1>   0.3700 
 38 H        7.8150     1.0750     2.5700 H     1 <1>   0.0800 
 39 H        6.8740     2.3770     1.8830 H     1 <1>   0.0800 
 40 H       -1.6340    -5.9960     1.4890 H     1 <1>   0.0800 
 41 H       -1.1880    -6.8490     0.0050 H     1 <1>   0.0800 
 42 H        7.7500     3.7170     0.0120 H     1 <1>   0.1500 
 43 H       10.0070     0.4500     1.5790 H     1 <1>   0.1500 
 44 H       -3.9780    -5.8580     0.6990 H     1 <1>   0.0800 
 45 H       -3.4640    -7.5270     0.7650 H     1 <1>   0.0800 
 46 H       -3.5350    -6.7050    -0.7750 H     1 <1>   0.0800 
 47 H        9.7320     4.4760    -1.2260 H     1 <1>   0.1500 
 48 H       11.9650     1.2040     0.3540 H     1 <1>   0.1500 
 49 H       13.9480     3.3410    -1.8500 H     1 <1>   0.0800 
 50 H       13.1970     1.7720    -1.5850 H     1 <1>   0.0800 
 51 H       13.6560     2.7870    -0.2050 H     1 <1>   0.0800 
@<TRIPOS>BOND
  1   1   2  2   
  2   2   3  am  
  3   2   4  1   
  4   3   5  1   
  5   3   6  1   
  6   4   7  1   
  7   4  28  1   
  8   4  29  1   
  9   5   8  ar  
 10   5   9  ar  
 11   6   7  1   
 12   6  30  1   
 13   6  31  1   
 14   7  10  1   
 15   7  32  1   
 16   8  11  ar  
 17   8  33  1   
 18   9  12  ar  
 19   9  34  1   
 20  10  13  2   
 21  10  14  am  
 22  11  15  ar  
 23  11  35  1   
 24  12  15  ar  
 25  12  36  1   
 26  14  16  1   
 27  14  37  1   
 28  15  17  1   
 29  16  18  1   
 30  16  38  1   
 31  16  39  1   
 32  17  19  1   
 33  18  20  ar  
 34  18  21  ar  
 35  19  22  1   
 36  19  40  1   
 37  19  41  1   
 38  20  23  ar  
 39  20  42  1   
 40  21  24  ar  
 41  21  43  1   
 42  22  44  1   
 43  22  45  1   
 44  22  46  1   
 45  23  25  ar  
 46  23  47  1   
 47  24  25  ar  
 48  24  48  1   
 49  25  26  1   
 50  26  27  1   
 51  27  49  1   
 52  27  50  1   
 53  27  51  1   
@<TRIPOS>SUBSTRUCTURE
  1 ****   7 GROUP 4 **** **** 0

# MOE 2024.06 (io_trps.svl 2023.06)
