@<TRIPOS>MOLECULE
N-[2-Methoxy-5-(piperidine-1-sulfonyl)-phenyl]-2-phenoxy-acetamide
52 54 1 0 0 
SMALL
USER_CHARGES


@<TRIPOS>ATOM
  1 S       -0.0120    -1.1040     1.7610 S.o2  1 <1>   1.4470 
  2 O       -0.1440     0.2860     2.1420 O.2   1 <1>  -0.6500 
  3 O        0.7360    -1.9980     2.6200 O.2   1 <1>  -0.6500 
  4 N        0.7400    -1.1250     0.2400 N.am  1 <1>  -0.8490 
  5 C       -1.6430    -1.8350     1.4440 C.ar  1 <1>  -0.0090 
  6 C        2.1850    -0.9140     0.3660 C.3   1 <1>   0.1960 
  7 C        0.1480    -0.1470    -0.6840 C.3   1 <1>   0.1960 
  8 C       -2.7260    -1.0420     1.0890 C.ar  1 <1>  -0.1500 
  9 C       -1.8430    -3.2080     1.5180 C.ar  1 <1>  -0.1500 
 10 C        2.8720    -1.0820    -0.9940 C.3   1 <1>  -0.1600 
 11 C        0.7580    -0.2970    -2.0810 C.3   1 <1>  -0.1600 
 12 C       -3.9720    -1.5800     0.7960 C.ar  1 <1>   0.1170 
 13 C       -3.0810    -3.7700     1.2600 C.ar  1 <1>  -0.1500 
 14 C        2.2810    -0.1350    -2.0440 C.3   1 <1>  -0.1600 
 15 N       -5.0560    -0.7790     0.4020 N.am  1 <1>  -0.5470 
 16 C       -4.1540    -2.9620     0.9020 C.ar  1 <1>   0.0820 
 17 C       -5.1150     0.4420    -0.2090 C.2   1 <1>   0.5690 
 18 O       -5.4010    -3.4520     0.6410 O.3   1 <1>  -0.3630 
 19 O       -4.1360     1.0850    -0.5070 O.2   1 <1>  -0.5700 
 20 C       -6.4840     1.0190    -0.5480 C.3   1 <1>   0.1810 
 21 C       -5.6670    -4.8380     0.6710 C.3   1 <1>   0.0400 
 22 O       -7.5200     0.0790    -0.2890 O.3   1 <1>  -0.3630 
 23 C       -8.8200     0.3870    -0.5200 C.ar  1 <1>   0.0820 
 24 C       -9.2500     1.6140    -1.0190 C.ar  1 <1>  -0.1500 
 25 C       -9.7530    -0.5970    -0.2310 C.ar  1 <1>  -0.1500 
 26 C      -10.6010     1.8420    -1.2240 C.ar  1 <1>  -0.1500 
 27 C      -11.1020    -0.3670    -0.4360 C.ar  1 <1>  -0.1500 
 28 C      -11.5260     0.8530    -0.9330 C.ar  1 <1>  -0.1500 
 29 H        2.6010    -1.6350     1.0500 H     1 <1>   0.0800 
 30 H        2.3770     0.0710     0.7600 H     1 <1>   0.0800 
 31 H        0.3140     0.8540    -0.3190 H     1 <1>   0.0800 
 32 H       -0.9140    -0.3050    -0.7580 H     1 <1>   0.0800 
 33 H       -2.5880     0.0240     1.0420 H     1 <1>   0.1500 
 34 H       -1.0150    -3.8430     1.7860 H     1 <1>   0.1500 
 35 H        2.7530    -2.1020    -1.3150 H     1 <1>   0.0800 
 36 H        3.9250    -0.8920    -0.8860 H     1 <1>   0.0800 
 37 H        0.3300     0.4410    -2.7360 H     1 <1>   0.0800 
 38 H        0.5020    -1.2680    -2.4670 H     1 <1>   0.0800 
 39 H       -3.1840    -4.8360     1.3420 H     1 <1>   0.1500 
 40 H        2.6990    -0.3490    -3.0120 H     1 <1>   0.0800 
 41 H        2.5270     0.8820    -1.7880 H     1 <1>   0.0800 
 42 H       -5.9580    -1.2610     0.4610 H     1 <1>   0.3700 
 43 H       -6.5110     1.2760    -1.5910 H     1 <1>   0.0800 
 44 H       -6.6580     1.8920     0.0530 H     1 <1>   0.0800 
 45 H       -6.7010    -4.9840     0.4160 H     1 <1>   0.0800 
 46 H       -5.4810    -5.2090     1.6630 H     1 <1>   0.0800 
 47 H       -5.0400    -5.3300    -0.0510 H     1 <1>   0.0800 
 48 H       -8.5590     2.4000    -1.2550 H     1 <1>   0.1500 
 49 H       -9.4180    -1.5430     0.1540 H     1 <1>   0.1500 
 50 H      -10.9340     2.7890    -1.6100 H     1 <1>   0.1500 
 51 H      -11.8200    -1.1360    -0.2090 H     1 <1>   0.1500 
 52 H      -12.5750     1.0340    -1.0920 H     1 <1>   0.1500 
@<TRIPOS>BOND
  1   1   2  2   
  2   1   3  2   
  3   1   4  am  
  4   1   5  1   
  5   4   6  1   
  6   4   7  1   
  7   5   8  ar  
  8   5   9  ar  
  9   6  10  1   
 10   6  29  1   
 11   6  30  1   
 12   7  11  1   
 13   7  31  1   
 14   7  32  1   
 15   8  12  ar  
 16   8  33  1   
 17   9  13  ar  
 18   9  34  1   
 19  10  14  1   
 20  10  35  1   
 21  10  36  1   
 22  11  14  1   
 23  11  37  1   
 24  11  38  1   
 25  12  15  1   
 26  12  16  ar  
 27  13  16  ar  
 28  13  39  1   
 29  14  40  1   
 30  14  41  1   
 31  15  17  am  
 32  15  42  1   
 33  16  18  1   
 34  17  19  2   
 35  17  20  1   
 36  18  21  1   
 37  20  22  1   
 38  20  43  1   
 39  20  44  1   
 40  21  45  1   
 41  21  46  1   
 42  21  47  1   
 43  22  23  1   
 44  23  24  ar  
 45  23  25  ar  
 46  24  26  ar  
 47  24  48  1   
 48  25  27  ar  
 49  25  49  1   
 50  26  28  ar  
 51  26  50  1   
 52  27  28  ar  
 53  27  51  1   
 54  28  52  1   
@<TRIPOS>SUBSTRUCTURE
  1 ****  12 GROUP 4 **** **** 0

# MOE 2024.06 (io_trps.svl 2023.06)
