@<TRIPOS>MOLECULE
Furan-2-carboxylic acid {4-methoxy-2-[(tetrahydro-furan-2-carbonyl)-amino]-pheny
42 44 1 0 0 
SMALL
USER_CHARGES


@<TRIPOS>ATOM
  1 O       -0.5260     0.1600    -1.6970 O.2   1 <1>  -0.5700 
  2 C       -1.2060     0.2750    -0.6930 C.2   1 <1>   0.7150 
  3 N       -1.3110     1.5060    -0.0940 N.am  1 <1>  -0.5470 
  4 C       -1.8870    -0.8580    -0.1070 C.2   1 <1>   0.0550 
  5 C       -0.5150     2.6680    -0.2190 C.ar  1 <1>   0.1170 
  6 O       -1.7270    -2.0830    -0.6020 O.3   1 <1>  -0.2800 
  7 C       -2.7300    -0.9420     0.9640 C.2   1 <1>  -0.1500 
  8 C        0.8880     2.6460    -0.3310 C.ar  1 <1>   0.1170 
  9 C       -1.1610     3.8950    -0.1620 C.ar  1 <1>  -0.1500 
 10 C       -2.4360    -2.9300     0.1070 C.2   1 <1>  -0.0100 
 11 C       -3.0850    -2.2840     1.0980 C.2   1 <1>  -0.1500 
 12 N        1.5880     1.4340    -0.4280 N.am  1 <1>  -0.5470 
 13 C        1.5940     3.8400    -0.3520 C.ar  1 <1>  -0.1500 
 14 C       -0.4470     5.0790    -0.1950 C.ar  1 <1>  -0.1500 
 15 C        2.6490     0.9650     0.2890 C.2   1 <1>   0.5690 
 16 C        0.9330     5.0610    -0.2820 C.ar  1 <1>   0.0830 
 17 O        3.2660     1.6490     1.0730 O.2   1 <1>  -0.5700 
 18 C        3.0230    -0.5140     0.1180 C.3   1 <1>   0.2610 
 19 O        1.5630     6.2650    -0.2920 O.3   1 <1>  -0.3630 
 20 O        2.7430    -0.9810    -1.1820 O.3   1 <1>  -0.5600 
 21 C        2.2530    -1.4350     1.0650 C.3   1 <1>  -0.1600 
 22 C        2.9720     6.3370    -0.2490 C.3   1 <1>   0.0400 
 23 C        1.9920    -2.1560    -1.1750 C.3   1 <1>   0.1200 
 24 C        2.0580    -2.6940     0.2450 C.3   1 <1>  -0.1600 
 25 H       -2.0610     1.5810     0.5870 H     1 <1>   0.3700 
 26 H       -3.0790    -0.1550     1.6090 H     1 <1>   0.1500 
 27 H       -2.2320     3.9330    -0.0890 H     1 <1>   0.1500 
 28 H       -2.4250    -3.9730    -0.1600 H     1 <1>   0.1500 
 29 H       -3.7410    -2.6940     1.8460 H     1 <1>   0.1500 
 30 H        1.1770     0.7500    -1.0810 H     1 <1>   0.3700 
 31 H        2.6630     3.7880    -0.4240 H     1 <1>   0.1500 
 32 H       -0.9540     6.0270    -0.1510 H     1 <1>   0.1500 
 33 H        4.0810    -0.6300     0.2690 H     1 <1>   0.0800 
 34 H        1.2980    -0.9980     1.3010 H     1 <1>   0.0800 
 35 H        2.7950    -1.6100     1.9770 H     1 <1>   0.0800 
 36 H        3.2530     7.3740    -0.2070 H     1 <1>   0.0800 
 37 H        3.3720     5.8850    -1.1390 H     1 <1>   0.0800 
 38 H        3.3210     5.8270     0.6320 H     1 <1>   0.0800 
 39 H        2.4030    -2.8420    -1.8950 H     1 <1>   0.0800 
 40 H        0.9810    -1.9050    -1.4470 H     1 <1>   0.0800 
 41 H        1.1650    -3.2310     0.5120 H     1 <1>   0.0800 
 42 H        2.9110    -3.3430     0.3400 H     1 <1>   0.0800 
@<TRIPOS>BOND
  1   1   2  2   
  2   2   3  am  
  3   2   4  1   
  4   3   5  1   
  5   3  25  1   
  6   4   6  1   
  7   4   7  2   
  8   5   8  ar  
  9   5   9  ar  
 10   6  10  1   
 11   7  11  1   
 12   7  26  1   
 13   8  12  1   
 14   8  13  ar  
 15   9  14  ar  
 16   9  27  1   
 17  10  11  2   
 18  10  28  1   
 19  11  29  1   
 20  12  15  am  
 21  12  30  1   
 22  13  16  ar  
 23  13  31  1   
 24  14  16  ar  
 25  14  32  1   
 26  15  17  2   
 27  15  18  1   
 28  16  19  1   
 29  18  20  1   
 30  18  21  1   
 31  18  33  1   
 32  19  22  1   
 33  20  23  1   
 34  21  24  1   
 35  21  34  1   
 36  21  35  1   
 37  22  36  1   
 38  22  37  1   
 39  22  38  1   
 40  23  24  1   
 41  23  39  1   
 42  23  40  1   
 43  24  41  1   
 44  24  42  1   
@<TRIPOS>SUBSTRUCTURE
  1 ****  12 GROUP 4 **** **** 0

# MOE 2024.06 (io_trps.svl 2023.06)
