@<TRIPOS>MOLECULE
5-Oxo-1-phenyl-pyrrolidine-3-carboxylic acid (5-methoxymethyl-[1,3,4]thiadiazol-
39 41 1 0 0 
SMALL
USER_CHARGES


@<TRIPOS>ATOM
  1 S       -0.2820     0.2060    -0.2750 S.3   1 <1>  -0.0800 
  2 C       -1.9530     0.2150     0.1820 C.2   1 <1>   0.4420 
  3 C       -0.1200     1.7130     0.5640 C.2   1 <1>   0.1980 
  4 N       -2.2600     1.2450     0.8820 N.2   1 <1>  -0.3380 
  5 N       -2.7130    -0.8520    -0.2520 N.am  1 <1>  -0.4940 
  6 N       -1.2100     2.0960     1.0960 N.2   1 <1>  -0.3380 
  7 C        1.2410     2.3880     0.5970 C.3   1 <1>   0.3000 
  8 C       -4.0300    -1.1260    -0.0150 C.2   1 <1>   0.5690 
  9 O        1.7990     2.4250    -0.6850 O.3   1 <1>  -0.5600 
 10 O       -4.7430    -0.4290     0.6580 O.2   1 <1>  -0.5700 
 11 C       -4.6170    -2.3780    -0.6540 C.3   1 <1>  -0.0190 
 12 C        3.0240     3.0810    -0.7560 C.3   1 <1>   0.0400 
 13 C       -6.0440    -2.7040    -0.1880 C.3   1 <1>   0.1400 
 14 C       -3.8230    -3.6620    -0.3710 C.3   1 <1>  -0.0990 
 15 N       -6.1350    -4.1770    -0.2710 N.am  1 <1>  -0.4770 
 16 C       -4.8870    -4.7240    -0.3690 C.2   1 <1>   0.5690 
 17 C       -7.3840    -4.8300    -0.2710 C.ar  1 <1>   0.1170 
 18 O       -4.6020    -5.8920    -0.4550 O.2   1 <1>  -0.5700 
 19 C       -7.5950    -5.9830    -1.0220 C.ar  1 <1>  -0.1500 
 20 C       -8.4510    -4.3310     0.4740 C.ar  1 <1>  -0.1500 
 21 C       -8.8260    -6.6130    -1.0350 C.ar  1 <1>  -0.1500 
 22 C       -9.6850    -4.9560     0.4620 C.ar  1 <1>  -0.1500 
 23 C       -9.8750    -6.0990    -0.2940 C.ar  1 <1>  -0.1500 
 24 H       -2.2080    -1.5120    -0.8340 H     1 <1>   0.3700 
 25 H        1.9020     1.8390     1.2440 H     1 <1>   0.0800 
 26 H        1.1320     3.3960     0.9570 H     1 <1>   0.0800 
 27 H       -4.6570    -2.2210    -1.7170 H     1 <1>   0.0800 
 28 H        3.3630     3.0470    -1.7760 H     1 <1>   0.0800 
 29 H        3.7360     2.5800    -0.1220 H     1 <1>   0.0800 
 30 H        2.8980     4.1060    -0.4520 H     1 <1>   0.0800 
 31 H       -6.7810    -2.2350    -0.8180 H     1 <1>   0.0800 
 32 H       -6.1990    -2.4070     0.8360 H     1 <1>   0.0800 
 33 H       -3.3660    -3.6410     0.6030 H     1 <1>   0.0800 
 34 H       -3.0860    -3.8640    -1.1260 H     1 <1>   0.0800 
 35 H       -6.7890    -6.3940    -1.6030 H     1 <1>   0.1500 
 36 H       -8.3210    -3.4510     1.0750 H     1 <1>   0.1500 
 37 H       -8.9670    -7.5040    -1.6220 H     1 <1>   0.1500 
 38 H      -10.4970    -4.5560     1.0440 H     1 <1>   0.1500 
 39 H      -10.8340    -6.5880    -0.3040 H     1 <1>   0.1500 
@<TRIPOS>BOND
  1   1   2  1   
  2   1   3  1   
  3   2   4  2   
  4   2   5  1   
  5   3   6  2   
  6   3   7  1   
  7   4   6  1   
  8   5   8  am  
  9   5  24  1   
 10   7   9  1   
 11   7  25  1   
 12   7  26  1   
 13   8  10  2   
 14   8  11  1   
 15   9  12  1   
 16  11  13  1   
 17  11  14  1   
 18  11  27  1   
 19  12  28  1   
 20  12  29  1   
 21  12  30  1   
 22  13  15  1   
 23  13  31  1   
 24  13  32  1   
 25  14  16  1   
 26  14  33  1   
 27  14  34  1   
 28  15  16  am  
 29  15  17  1   
 30  16  18  2   
 31  17  19  ar  
 32  17  20  ar  
 33  19  21  ar  
 34  19  35  1   
 35  20  22  ar  
 36  20  36  1   
 37  21  23  ar  
 38  21  37  1   
 39  22  23  ar  
 40  22  38  1   
 41  23  39  1   
@<TRIPOS>SUBSTRUCTURE
  1 ****   8 GROUP 4 **** **** 0

# MOE 2024.06 (io_trps.svl 2023.06)
