@<TRIPOS>MOLECULE
2-(4-Allyloxy-phenyl)-5-ethyl-7-methyl-1,3-diaza-tricyclo[3.3.1.1*3,7*]decan-6-o
51 54 1 0 0 
SMALL
USER_CHARGES


@<TRIPOS>ATOM
  1 O        0.1050    -0.7840    -0.4290 O.2   1 <1>  -0.5700 
  2 C        1.1650    -1.2630    -0.1610 C.2   1 <1>   0.4480 
  3 C        1.6230    -2.6370    -0.6580 C.3   1 <1>   0.0610 
  4 C        2.1710    -0.5630     0.7530 C.3   1 <1>   0.0610 
  5 C        1.8650    -3.4940     0.5900 C.3   1 <1>   0.3430 
  6 C        2.9900    -2.4420    -1.3270 C.3   1 <1>   0.1100 
  7 C        0.6480    -3.3280    -1.6460 C.3   1 <1>  -0.1600 
  8 C        2.3650    -1.4910     1.9580 C.3   1 <1>   0.3430 
  9 C        3.5140    -0.4880     0.0110 C.3   1 <1>   0.1100 
 10 C        1.7230     0.8410     1.2080 C.3   1 <1>  -0.2400 
 11 N        2.8640    -2.8290     1.4980 N.4   1 <1>  -0.9590 
 12 N        3.9390    -1.8520    -0.3540 N.3   1 <1>  -0.8100 
 13 C       -0.6730    -3.8140    -1.0260 C.3   1 <1>  -0.2400 
 14 C        4.1820    -2.6900     0.8320 C.3   1 <1>   0.8360 
 15 C        4.8040    -4.0540     0.4920 C.ar  1 <1>  -0.1440 
 16 C        4.5470    -5.1960     1.2510 C.ar  1 <1>  -0.1500 
 17 C        5.6790    -4.1690    -0.5850 C.ar  1 <1>  -0.1500 
 18 C        5.1190    -6.4090     0.9170 C.ar  1 <1>  -0.1500 
 19 C        6.2540    -5.3820    -0.9190 C.ar  1 <1>  -0.1500 
 20 C        5.9700    -6.5160    -0.1680 C.ar  1 <1>   0.0820 
 21 O        6.4780    -7.7450    -0.4220 O.3   1 <1>  -0.3630 
 22 C        7.4260    -7.9530    -1.4440 C.3   1 <1>   0.2580 
 23 C        7.8200    -9.4170    -1.4270 C.2   1 <1>  -0.2880 
 24 C        9.0640    -9.8840    -1.2780 C.2   1 <1>  -0.3000 
 25 H        2.2270    -4.4630     0.2860 H     1 <1>   0.0800 
 26 H        0.9310    -3.6320     1.1110 H     1 <1>   0.0800 
 27 H        3.3670    -3.3850    -1.6880 H     1 <1>   0.0800 
 28 H        2.8940    -1.7890    -2.1800 H     1 <1>   0.0800 
 29 H        1.1330    -4.1780    -2.0970 H     1 <1>   0.0800 
 30 H        0.4160    -2.6390    -2.4420 H     1 <1>   0.0800 
 31 H        1.4250    -1.6040     2.4740 H     1 <1>   0.0800 
 32 H        3.0730    -1.0470     2.6400 H     1 <1>   0.0800 
 33 H        4.2650    -0.0240     0.6290 H     1 <1>   0.0800 
 34 H        3.4110     0.1110    -0.8810 H     1 <1>   0.0800 
 35 H        0.7850     0.7870     1.7350 H     1 <1>   0.0800 
 36 H        1.5800     1.4790     0.3510 H     1 <1>   0.0800 
 37 H        2.4540     1.2970     1.8520 H     1 <1>   0.0800 
 38 H        3.0320    -3.4310     2.3080 H     1 <1>   0.4500 
 39 H       -0.5140    -4.5960    -0.3050 H     1 <1>   0.0800 
 40 H       -1.3060    -4.2110    -1.8020 H     1 <1>   0.0800 
 41 H       -1.2060    -3.0050    -0.5570 H     1 <1>   0.0800 
 42 H        4.8670    -2.1700     1.4840 H     1 <1>   0.0800 
 43 H        3.9090    -5.1790     2.1150 H     1 <1>   0.1500 
 44 H        5.9260    -3.3070    -1.1840 H     1 <1>   0.1500 
 45 H        4.9170    -7.2920     1.5000 H     1 <1>   0.1500 
 46 H        6.9180    -5.4240    -1.7630 H     1 <1>   0.1500 
 47 H        8.2790    -7.3250    -1.2540 H     1 <1>   0.0800 
 48 H        6.9750    -7.6960    -2.3860 H     1 <1>   0.0800 
 49 H        6.9680   -10.0640    -1.5470 H     1 <1>   0.1500 
 50 H        9.3120   -10.9320    -1.2680 H     1 <1>   0.1500 
 51 H        9.9370    -9.2670    -1.1520 H     1 <1>   0.1500 
@<TRIPOS>BOND
  1   1   2  2   
  2   2   3  1   
  3   2   4  1   
  4   3   5  1   
  5   3   6  1   
  6   3   7  1   
  7   4   8  1   
  8   4   9  1   
  9   4  10  1   
 10   5  11  1   
 11   5  25  1   
 12   5  26  1   
 13   6  12  1   
 14   6  27  1   
 15   6  28  1   
 16   7  13  1   
 17   7  29  1   
 18   7  30  1   
 19   8  11  1   
 20   8  31  1   
 21   8  32  1   
 22   9  12  1   
 23   9  33  1   
 24   9  34  1   
 25  10  35  1   
 26  10  36  1   
 27  10  37  1   
 28  11  14  1   
 29  11  38  1   
 30  12  14  1   
 31  13  39  1   
 32  13  40  1   
 33  13  41  1   
 34  14  15  1   
 35  14  42  1   
 36  15  16  ar  
 37  15  17  ar  
 38  16  18  ar  
 39  16  43  1   
 40  17  19  ar  
 41  17  44  1   
 42  18  20  ar  
 43  18  45  1   
 44  19  20  ar  
 45  19  46  1   
 46  20  21  1   
 47  21  22  1   
 48  22  23  1   
 49  22  47  1   
 50  22  48  1   
 51  23  24  2   
 52  23  49  1   
 53  24  50  1   
 54  24  51  1   
@<TRIPOS>SUBSTRUCTURE
  1 ****  15 GROUP 4 **** **** 0

# MOE 2024.06 (io_trps.svl 2023.06)
