@<TRIPOS>MOLECULE
N-Adamantan-1-yl-2-[5-(4-methoxy-phenoxymethyl)-4-methyl-4H-[1,2,4]triazol-3-yls
61 65 1 0 0 
SMALL
USER_CHARGES


@<TRIPOS>ATOM
  1 S        0.0110    -0.4260    -0.5560 S.3   1 <1>  -0.2860 
  2 C       -0.1890     1.2950    -1.0310 C.2   1 <1>   0.2420 
  3 C        1.0690    -1.1040    -1.9300 C.3   1 <1>   0.1310 
  4 N        0.3780     1.8150    -2.0600 N.2   1 <1>  -0.3380 
  5 N       -0.9420     2.1540    -0.3430 N.pl3 1 <1>   0.0480 
  6 C        1.4360    -2.5600    -1.6910 C.2   1 <1>   0.5690 
  7 N       -0.0110     3.0930    -2.0810 N.2   1 <1>  -0.3380 
  8 C       -0.7910     3.2760    -1.0650 C.2   1 <1>   0.0060 
  9 C       -1.7390     1.9110     0.8790 C.3   1 <1>   0.0160 
 10 O        1.7220    -3.2350    -2.6490 O.2   1 <1>  -0.5700 
 11 N        1.4400    -3.0420    -0.4180 N.am  1 <1>  -0.7300 
 12 C       -1.4360     4.6140    -0.7400 C.3   1 <1>   0.3000 
 13 C        1.7520    -4.4000     0.0570 C.3   1 <1>   0.3000 
 14 O       -2.7910     4.4240    -0.3790 O.3   1 <1>  -0.3630 
 15 C        3.1990    -4.7880    -0.3010 C.3   1 <1>  -0.1600 
 16 C        0.7710    -5.4270    -0.5400 C.3   1 <1>  -0.1600 
 17 C        1.6020    -4.4010     1.5900 C.3   1 <1>  -0.1600 
 18 C       -3.5630     5.4740     0.0000 C.ar  1 <1>   0.0830 
 19 C        3.5180    -6.1920     0.2490 C.3   1 <1>  -0.0800 
 20 C        1.0830    -6.8330     0.0090 C.3   1 <1>  -0.0800 
 21 C        1.9140    -5.7990     2.1580 C.3   1 <1>  -0.0800 
 22 C       -4.8720     5.1860     0.3560 C.ar  1 <1>  -0.1500 
 23 C       -3.1150     6.7920     0.0480 C.ar  1 <1>  -0.1500 
 24 C        2.5320    -7.2090    -0.3590 C.3   1 <1>  -0.1600 
 25 C        3.3570    -6.1850     1.7810 C.3   1 <1>  -0.1600 
 26 C        0.9390    -6.8220     1.5430 C.3   1 <1>  -0.1600 
 27 C       -5.7310     6.1910     0.7630 C.ar  1 <1>  -0.1500 
 28 C       -3.9750     7.7970     0.4560 C.ar  1 <1>  -0.1500 
 29 C       -5.2820     7.5080     0.8160 C.ar  1 <1>   0.0830 
 30 O       -6.0530     8.5570     1.2040 O.3   1 <1>  -0.3630 
 31 C       -7.4000     8.3710     1.5790 C.3   1 <1>   0.0400 
 32 H        1.9560    -0.5010    -1.9800 H     1 <1>   0.0800 
 33 H        0.5090    -1.0030    -2.8410 H     1 <1>   0.0800 
 34 H       -1.3270     1.0840     1.4280 H     1 <1>   0.0800 
 35 H       -2.7520     1.6870     0.5990 H     1 <1>   0.0800 
 36 H       -1.7260     2.7880     1.4990 H     1 <1>   0.0800 
 37 H        1.1300    -2.4130     0.3220 H     1 <1>   0.3700 
 38 H       -1.4030     5.2560    -1.6030 H     1 <1>   0.0800 
 39 H       -0.9230     5.0750     0.0840 H     1 <1>   0.0800 
 40 H        3.8840    -4.0700     0.1120 H     1 <1>   0.0800 
 41 H        3.3240    -4.7950    -1.3690 H     1 <1>   0.0800 
 42 H        0.8630    -5.4420    -1.6110 H     1 <1>   0.0800 
 43 H       -0.2390    -5.1550    -0.2930 H     1 <1>   0.0800 
 44 H        0.5970    -4.1270     1.8590 H     1 <1>   0.0800 
 45 H        2.2770    -3.6850     2.0230 H     1 <1>   0.0800 
 46 H        4.5270    -6.4630    -0.0110 H     1 <1>   0.0800 
 47 H        0.4010    -7.5490    -0.4170 H     1 <1>   0.0800 
 48 H        1.8070    -5.7920     3.2290 H     1 <1>   0.0800 
 49 H       -5.2150     4.1680     0.3110 H     1 <1>   0.1500 
 50 H       -2.1130     7.0620    -0.2240 H     1 <1>   0.1500 
 51 H        2.7560    -8.1960     0.0050 H     1 <1>   0.0800 
 52 H        2.6410    -7.2250    -1.4300 H     1 <1>   0.0800 
 53 H        4.0490    -5.4860     2.2170 H     1 <1>   0.0800 
 54 H        3.5870    -7.1600     2.1740 H     1 <1>   0.0800 
 55 H        1.1460    -7.8030     1.9340 H     1 <1>   0.0800 
 56 H       -0.0720    -6.5710     1.8120 H     1 <1>   0.0800 
 57 H       -6.7370     5.9330     1.0320 H     1 <1>   0.1500 
 58 H       -3.6400     8.8180     0.4980 H     1 <1>   0.1500 
 59 H       -7.8090     9.3300     1.8400 H     1 <1>   0.0800 
 60 H       -7.4390     7.7130     2.4290 H     1 <1>   0.0800 
 61 H       -7.9410     7.9590     0.7450 H     1 <1>   0.0800 
@<TRIPOS>BOND
  1   1   2  1   
  2   1   3  1   
  3   2   4  2   
  4   2   5  1   
  5   3   6  1   
  6   3  32  1   
  7   3  33  1   
  8   4   7  1   
  9   5   8  1   
 10   5   9  1   
 11   6  10  2   
 12   6  11  am  
 13   7   8  2   
 14   8  12  1   
 15   9  34  1   
 16   9  35  1   
 17   9  36  1   
 18  11  13  1   
 19  11  37  1   
 20  12  14  1   
 21  12  38  1   
 22  12  39  1   
 23  13  15  1   
 24  13  16  1   
 25  13  17  1   
 26  14  18  1   
 27  15  19  1   
 28  15  40  1   
 29  15  41  1   
 30  16  20  1   
 31  16  42  1   
 32  16  43  1   
 33  17  21  1   
 34  17  44  1   
 35  17  45  1   
 36  18  22  ar  
 37  18  23  ar  
 38  19  24  1   
 39  19  25  1   
 40  19  46  1   
 41  20  24  1   
 42  20  26  1   
 43  20  47  1   
 44  21  25  1   
 45  21  26  1   
 46  21  48  1   
 47  22  27  ar  
 48  22  49  1   
 49  23  28  ar  
 50  23  50  1   
 51  24  51  1   
 52  24  52  1   
 53  25  53  1   
 54  25  54  1   
 55  26  55  1   
 56  26  56  1   
 57  27  29  ar  
 58  27  57  1   
 59  28  29  ar  
 60  28  58  1   
 61  29  30  1   
 62  30  31  1   
 63  31  59  1   
 64  31  60  1   
 65  31  61  1   
@<TRIPOS>SUBSTRUCTURE
  1 ****   1 GROUP 4 **** **** 0

# MOE 2024.06 (io_trps.svl 2023.06)
