@<TRIPOS>MOLECULE
N-Benzo[1,3]dioxol-5-ylmethyl-4-methyl-3-(piperidine-1-carbonyl)-benzenesulfonam
53 56 1 0 0 
SMALL
USER_CHARGES


@<TRIPOS>ATOM
  1 S       -0.3140     0.1480    -2.1590 S.o2  1 <1>   1.4470 
  2 O       -1.0220     1.2160    -2.8270 O.2   1 <1>  -0.6500 
  3 O        0.3720    -0.8510    -2.9420 O.2   1 <1>  -0.6500 
  4 N        0.8830     0.8790    -1.2460 N.am  1 <1>  -0.9140 
  5 C       -1.3660    -0.6390    -0.9100 C.ar  1 <1>  -0.0090 
  6 C        0.4670     2.1170    -0.6180 C.3   1 <1>   0.3390 
  7 C       -2.5180    -0.0180    -0.4520 C.ar  1 <1>  -0.1500 
  8 C       -1.0270    -1.8640    -0.3520 C.ar  1 <1>  -0.1500 
  9 C        1.6710     2.7400     0.0640 C.ar  1 <1>  -0.1440 
 10 C       -3.3300    -0.5750     0.5310 C.ar  1 <1>   0.0860 
 11 C       -1.8120    -2.4420     0.6290 C.ar  1 <1>  -0.1500 
 12 C        2.1750     3.9590    -0.3820 C.ar  1 <1>  -0.1500 
 13 C        2.2730     2.0930     1.1440 C.ar  1 <1>  -0.1500 
 14 C       -2.9560    -1.8060     1.0780 C.ar  1 <1>  -0.1430 
 15 C       -4.5210     0.1400     0.9470 C.2   1 <1>   0.5440 
 16 C        3.2660     4.4940     0.2730 C.ar  1 <1>   0.0830 
 17 C        3.3710     2.6470     1.7920 C.ar  1 <1>  -0.1500 
 18 C       -3.7920    -2.4490     2.1770 C.3   1 <1>  -0.0970 
 19 O       -4.4100     1.0630     1.7320 O.2   1 <1>  -0.5700 
 20 N       -5.7660    -0.1890     0.4560 N.am  1 <1>  -0.6600 
 21 O        3.9040     5.6410     0.0190 O.3   1 <1>  -0.3620 
 22 C        3.8470     3.8580     1.3310 C.ar  1 <1>   0.0830 
 23 C       -5.9590    -1.1900    -0.6370 C.3   1 <1>   0.1400 
 24 C       -6.9820     0.5190     0.9590 C.3   1 <1>   0.1400 
 25 C        4.9580     5.7430     0.9760 C.3   1 <1>   0.4000 
 26 O        4.8780     4.5750     1.7910 O.3   1 <1>  -0.3630 
 27 C       -7.1460    -0.7940    -1.5200 C.3   1 <1>  -0.1600 
 28 C       -8.2340    -0.3390     0.7540 C.3   1 <1>  -0.1600 
 29 C       -8.4600    -0.7010    -0.7250 C.3   1 <1>  -0.1600 
 30 H        1.6150     1.1100    -1.9130 H     1 <1>   0.4200 
 31 H       -0.3000     1.9210     0.1140 H     1 <1>   0.0800 
 32 H        0.0750     2.8040    -1.3510 H     1 <1>   0.0800 
 33 H       -2.8050     0.9350    -0.8650 H     1 <1>   0.1500 
 34 H       -0.1360    -2.3680    -0.6880 H     1 <1>   0.1500 
 35 H       -1.5190    -3.3920     1.0430 H     1 <1>   0.1500 
 36 H        1.7420     4.4900    -1.2110 H     1 <1>   0.1500 
 37 H        1.8850     1.1470     1.4820 H     1 <1>   0.1500 
 38 H        3.8430     2.1590     2.6250 H     1 <1>   0.1500 
 39 H       -3.9150    -1.7600     2.9950 H     1 <1>   0.0800 
 40 H       -3.3210    -3.3390     2.5540 H     1 <1>   0.0800 
 41 H       -4.7640    -2.7110     1.8010 H     1 <1>   0.0800 
 42 H       -6.1410    -2.1570    -0.2000 H     1 <1>   0.0800 
 43 H       -5.0740    -1.2550    -1.2460 H     1 <1>   0.0800 
 44 H       -7.0840     1.4510     0.4310 H     1 <1>   0.0800 
 45 H       -6.8640     0.7390     2.0070 H     1 <1>   0.0800 
 46 H        4.8100     6.6180     1.5830 H     1 <1>   0.0800 
 47 H        5.9060     5.7650     0.4680 H     1 <1>   0.0800 
 48 H       -7.2570    -1.5050    -2.3190 H     1 <1>   0.0800 
 49 H       -6.9270     0.1610    -1.9660 H     1 <1>   0.0800 
 50 H       -9.0940     0.1840     1.1330 H     1 <1>   0.0800 
 51 H       -8.1230    -1.2380     1.3340 H     1 <1>   0.0800 
 52 H       -8.9810    -1.6420    -0.7720 H     1 <1>   0.0800 
 53 H       -9.0890     0.0410    -1.1870 H     1 <1>   0.0800 
@<TRIPOS>BOND
  1   1   2  2   
  2   1   3  2   
  3   1   4  am  
  4   1   5  1   
  5   4   6  1   
  6   4  30  1   
  7   5   7  ar  
  8   5   8  ar  
  9   6   9  1   
 10   6  31  1   
 11   6  32  1   
 12   7  10  ar  
 13   7  33  1   
 14   8  11  ar  
 15   8  34  1   
 16   9  12  ar  
 17   9  13  ar  
 18  10  14  ar  
 19  10  15  1   
 20  11  14  ar  
 21  11  35  1   
 22  12  16  ar  
 23  12  36  1   
 24  13  17  ar  
 25  13  37  1   
 26  14  18  1   
 27  15  19  2   
 28  15  20  am  
 29  16  21  1   
 30  16  22  ar  
 31  17  22  ar  
 32  17  38  1   
 33  18  39  1   
 34  18  40  1   
 35  18  41  1   
 36  20  23  1   
 37  20  24  1   
 38  21  25  1   
 39  22  26  1   
 40  23  27  1   
 41  23  42  1   
 42  23  43  1   
 43  24  28  1   
 44  24  44  1   
 45  24  45  1   
 46  25  26  1   
 47  25  46  1   
 48  25  47  1   
 49  27  29  1   
 50  27  48  1   
 51  27  49  1   
 52  28  29  1   
 53  28  50  1   
 54  28  51  1   
 55  29  52  1   
 56  29  53  1   
@<TRIPOS>SUBSTRUCTURE
  1 ****   7 GROUP 4 **** **** 0

# MOE 2024.06 (io_trps.svl 2023.06)
