@<TRIPOS>MOLECULE
1,3-Dimethyl-2,6-dioxo-1,2,3,6-tetrahydro-pyrimidine-4-carboxylic acid [2-(3,4-d
46 47 1 0 0 
SMALL
USER_CHARGES


@<TRIPOS>ATOM
  1 O        0.6910     0.3730    -0.5300 O.2   1 <1>  -0.5700 
  2 C        1.7190     0.9430    -0.2090 C.2   1 <1>   0.6900 
  3 N        2.9320     0.2620    -0.2000 N.am  1 <1>  -0.4690 
  4 N        1.6800     2.2800     0.1390 N.am  1 <1>  -0.4200 
  5 C        4.1290     0.9000     0.1820 C.2   1 <1>   0.1230 
  6 C        2.9540    -1.1880    -0.5720 C.3   1 <1>   0.0600 
  7 C        2.8410     2.9430     0.4700 C.2   1 <1>   0.6160 
  8 C        0.3780     3.0110     0.1230 C.3   1 <1>   0.0600 
  9 C        5.4030     0.1950     0.2280 C.2   1 <1>   0.6160 
 10 C        4.0540     2.2170     0.5020 C.2   1 <1>  -0.1360 
 11 O        2.8300     4.1340     0.7220 O.2   1 <1>  -0.5700 
 12 O        5.5260    -0.8650     0.8100 O.2   1 <1>  -0.5700 
 13 N        6.5030     0.7390    -0.3760 N.am  1 <1>  -0.7300 
 14 C        7.8490     0.1160    -0.4100 C.3   1 <1>   0.1400 
 15 C        8.6820     0.6040     0.7750 C.3   1 <1>  -0.0170 
 16 C       10.0900     0.0380     0.6930 C.ar  1 <1>  -0.1440 
 17 C       11.1190     0.7820     0.1350 C.ar  1 <1>  -0.1500 
 18 C       10.3540    -1.2330     1.1740 C.ar  1 <1>  -0.1500 
 19 C       12.4130     0.2720     0.0510 C.ar  1 <1>   0.0820 
 20 C       11.6310    -1.7560     1.0870 C.ar  1 <1>  -0.1500 
 21 O       13.4290     1.0230    -0.4660 O.3   1 <1>  -0.3620 
 22 C       12.6640    -1.0280     0.5220 C.ar  1 <1>   0.0820 
 23 C       13.3530     2.4310    -0.5140 C.3   1 <1>   0.0400 
 24 O       13.8670    -1.6700     0.4850 O.3   1 <1>  -0.3630 
 25 C       14.7850    -1.4390    -0.5600 C.3   1 <1>   0.0400 
 26 H        2.0600    -1.4730    -1.0990 H     1 <1>   0.0800 
 27 H        3.0360    -1.7850     0.3190 H     1 <1>   0.0800 
 28 H        3.7950    -1.3950    -1.2110 H     1 <1>   0.0800 
 29 H       -0.4180     2.3610     0.4440 H     1 <1>   0.0800 
 30 H        0.1710     3.3520    -0.8750 H     1 <1>   0.0800 
 31 H        0.4090     3.8580     0.7860 H     1 <1>   0.0800 
 32 H        4.9180     2.7760     0.8070 H     1 <1>   0.1500 
 33 H        6.4020     1.6000    -0.9150 H     1 <1>   0.3700 
 34 H        8.3390     0.3710    -1.3340 H     1 <1>   0.0800 
 35 H        7.7570    -0.9570    -0.3660 H     1 <1>   0.0800 
 36 H        8.2190     0.2810     1.6920 H     1 <1>   0.0800 
 37 H        8.7220     1.6780     0.7760 H     1 <1>   0.0800 
 38 H       10.8960     1.7630    -0.2350 H     1 <1>   0.1500 
 39 H        9.5690    -1.8230     1.6160 H     1 <1>   0.1500 
 40 H       11.8340    -2.7440     1.4580 H     1 <1>   0.1500 
 41 H       14.3270     2.8080    -0.7690 H     1 <1>   0.0800 
 42 H       13.0600     2.7990     0.4530 H     1 <1>   0.0800 
 43 H       12.6440     2.7180    -1.2700 H     1 <1>   0.0800 
 44 H       15.4620    -2.2720    -0.6010 H     1 <1>   0.0800 
 45 H       15.3310    -0.5370    -0.3480 H     1 <1>   0.0800 
 46 H       14.2480    -1.3520    -1.4880 H     1 <1>   0.0800 
@<TRIPOS>BOND
  1   1   2  2   
  2   2   3  am  
  3   2   4  am  
  4   3   5  1   
  5   3   6  1   
  6   4   7  am  
  7   4   8  1   
  8   5   9  1   
  9   5  10  2   
 10   6  26  1   
 11   6  27  1   
 12   6  28  1   
 13   7  10  1   
 14   7  11  2   
 15   8  29  1   
 16   8  30  1   
 17   8  31  1   
 18   9  12  2   
 19   9  13  am  
 20  10  32  1   
 21  13  14  1   
 22  13  33  1   
 23  14  15  1   
 24  14  34  1   
 25  14  35  1   
 26  15  16  1   
 27  15  36  1   
 28  15  37  1   
 29  16  17  ar  
 30  16  18  ar  
 31  17  19  ar  
 32  17  38  1   
 33  18  20  ar  
 34  18  39  1   
 35  19  21  1   
 36  19  22  ar  
 37  20  22  ar  
 38  20  40  1   
 39  21  23  1   
 40  22  24  1   
 41  23  41  1   
 42  23  42  1   
 43  23  43  1   
 44  24  25  1   
 45  25  44  1   
 46  25  45  1   
 47  25  46  1   
@<TRIPOS>SUBSTRUCTURE
  1 ****  14 GROUP 4 **** **** 0

# MOE 2024.06 (io_trps.svl 2023.06)
