@<TRIPOS>MOLECULE
N-Ethyl-N-[3-(4-methoxy-phenyl)-[1,2,4]oxadiazol-5-ylmethyl]-acetamide
37 38 1 0 0 
SMALL
USER_CHARGES


@<TRIPOS>ATOM
  1 O        0.6090     1.3300    -2.0220 O.2   1 <1>  -0.5700 
  2 C        0.6830     2.2700    -1.2700 C.2   1 <1>   0.5690 
  3 N        1.6250     2.3300    -0.2780 N.am  1 <1>  -0.6600 
  4 C       -0.3150     3.3890    -1.4590 C.3   1 <1>  -0.1790 
  5 C        2.6290     1.2240    -0.1390 C.3   1 <1>   0.3200 
  6 C        1.7950     3.4710     0.6620 C.3   1 <1>   0.1400 
  7 C        4.0260     1.6720    -0.5440 C.2   1 <1>   0.2980 
  8 C        1.0840     3.1600     1.9770 C.3   1 <1>  -0.2400 
  9 O        4.2570     1.9440    -1.8010 O.3   1 <1>  -0.0190 
 10 N        5.0170     1.8190     0.2380 N.2   1 <1>  -0.5650 
 11 N        5.5040     2.2970    -1.8220 N.2   1 <1>  -0.4100 
 12 C        5.9580     2.2260    -0.6210 C.2   1 <1>   0.4620 
 13 C        7.3150     2.5430    -0.2070 C.ar  1 <1>   0.0540 
 14 C        8.2690     2.9830    -1.1280 C.ar  1 <1>  -0.1500 
 15 C        7.7260     2.4240     1.1230 C.ar  1 <1>  -0.1500 
 16 C        9.5630     3.2910    -0.7480 C.ar  1 <1>  -0.1500 
 17 C        9.0160     2.7290     1.5110 C.ar  1 <1>  -0.1500 
 18 C        9.9460     3.1650     0.5830 C.ar  1 <1>   0.0820 
 19 O       11.1890     3.4450     1.0430 O.3   1 <1>  -0.3630 
 20 C       12.2090     3.8950     0.1790 C.3   1 <1>   0.0400 
 21 H       -0.8330     3.5820    -0.5400 H     1 <1>   0.0800 
 22 H       -1.0340     3.1080    -2.2060 H     1 <1>   0.0800 
 23 H        0.1930     4.2760    -1.7870 H     1 <1>   0.0800 
 24 H        2.3530     0.3770    -0.7410 H     1 <1>   0.0800 
 25 H        2.6510     0.8980     0.8850 H     1 <1>   0.0800 
 26 H        1.3920     4.3730     0.2360 H     1 <1>   0.0800 
 27 H        2.8430     3.6440     0.8450 H     1 <1>   0.0800 
 28 H        0.0390     2.9760     1.8050 H     1 <1>   0.0800 
 29 H        1.1780     3.9980     2.6430 H     1 <1>   0.0800 
 30 H        1.5240     2.3010     2.4520 H     1 <1>   0.0800 
 31 H        7.9900     3.0870    -2.1630 H     1 <1>   0.1500 
 32 H        7.0240     2.0860     1.8650 H     1 <1>   0.1500 
 33 H       10.2550     3.6260    -1.4970 H     1 <1>   0.1500 
 34 H        9.3140     2.6320     2.5400 H     1 <1>   0.1500 
 35 H       13.0970     4.0490     0.7640 H     1 <1>   0.0800 
 36 H       11.9010     4.8230    -0.2700 H     1 <1>   0.0800 
 37 H       12.3890     3.1440    -0.5690 H     1 <1>   0.0800 
@<TRIPOS>BOND
  1   1   2  2   
  2   2   3  am  
  3   2   4  1   
  4   3   5  1   
  5   3   6  1   
  6   4  21  1   
  7   4  22  1   
  8   4  23  1   
  9   5   7  1   
 10   5  24  1   
 11   5  25  1   
 12   6   8  1   
 13   6  26  1   
 14   6  27  1   
 15   7   9  1   
 16   7  10  2   
 17   8  28  1   
 18   8  29  1   
 19   8  30  1   
 20   9  11  1   
 21  10  12  1   
 22  11  12  2   
 23  12  13  1   
 24  13  14  ar  
 25  13  15  ar  
 26  14  16  ar  
 27  14  31  1   
 28  15  17  ar  
 29  15  32  1   
 30  16  18  ar  
 31  16  33  1   
 32  17  18  ar  
 33  17  34  1   
 34  18  19  1   
 35  19  20  1   
 36  20  35  1   
 37  20  36  1   
 38  20  37  1   
@<TRIPOS>SUBSTRUCTURE
  1 ****  12 GROUP 4 **** **** 0

# MOE 2024.06 (io_trps.svl 2023.06)
