@<TRIPOS>MOLECULE
N-[3-(3,4-Dimethoxy-phenyl)-[1,2,4]oxadiazol-5-ylmethyl]-N-isopropyl-acetamide
44 45 1 0 0 
SMALL
USER_CHARGES


@<TRIPOS>ATOM
  1 O        0.9010     0.8760     1.5870 O.2   1 <1>  -0.5700 
  2 C        1.4090     1.5400     0.7170 C.2   1 <1>   0.5690 
  3 N        2.4430     1.0640    -0.0490 N.am  1 <1>  -0.6600 
  4 C        0.8490     2.9300     0.5110 C.3   1 <1>  -0.1790 
  5 C        3.0580     1.8500    -1.1640 C.3   1 <1>   0.2200 
  6 C        2.9950    -0.3050     0.2660 C.3   1 <1>   0.3200 
  7 C        3.4000     0.9780    -2.3730 C.3   1 <1>  -0.2400 
  8 C        4.2890     2.6100    -0.6670 C.3   1 <1>  -0.2400 
  9 C        4.3990    -0.2670     0.8510 C.2   1 <1>   0.2980 
 10 O        4.5910     0.3740     1.9730 O.3   1 <1>  -0.0190 
 11 N        5.4350    -0.8060     0.3470 N.2   1 <1>  -0.5650 
 12 N        5.8600     0.2370     2.2020 N.2   1 <1>  -0.4100 
 13 C        6.3630    -0.4600     1.2460 C.2   1 <1>   0.4620 
 14 C        7.7610    -0.8400     1.1200 C.ar  1 <1>   0.0540 
 15 C        8.2210    -1.6230     0.0600 C.ar  1 <1>  -0.1500 
 16 C        8.7040    -0.4320     2.0620 C.ar  1 <1>  -0.1500 
 17 C        9.5570    -1.9950    -0.0730 C.ar  1 <1>   0.0820 
 18 C       10.0340    -0.7850     1.9470 C.ar  1 <1>  -0.1500 
 19 O        9.9660    -2.7760    -1.1170 O.3   1 <1>  -0.3630 
 20 C       10.4840    -1.5590     0.8910 C.ar  1 <1>   0.0820 
 21 C        9.0640    -3.3360    -2.0470 C.3   1 <1>   0.0400 
 22 O       11.8240    -1.8120     0.9200 O.3   1 <1>  -0.3630 
 23 C       12.5310    -2.3970    -0.1490 C.3   1 <1>   0.0400 
 24 H        1.6360     3.6590     0.5540 H     1 <1>   0.0800 
 25 H        0.1390     3.1510     1.2860 H     1 <1>   0.0800 
 26 H        0.3480     2.9850    -0.4370 H     1 <1>   0.0800 
 27 H        2.3440     2.5780    -1.5070 H     1 <1>   0.0800 
 28 H        3.0000    -0.9080    -0.6230 H     1 <1>   0.0800 
 29 H        2.3660    -0.8160     0.9720 H     1 <1>   0.0800 
 30 H        4.2130     0.3080    -2.1570 H     1 <1>   0.0800 
 31 H        3.7030     1.6050    -3.1920 H     1 <1>   0.0800 
 32 H        2.5370     0.4170    -2.6840 H     1 <1>   0.0800 
 33 H        5.1100     1.9450    -0.4730 H     1 <1>   0.0800 
 34 H        4.0600     3.1570     0.2290 H     1 <1>   0.0800 
 35 H        4.6080     3.3110    -1.4180 H     1 <1>   0.0800 
 36 H        7.4960    -1.9360    -0.6650 H     1 <1>   0.1500 
 37 H        8.3930     0.1710     2.8980 H     1 <1>   0.1500 
 38 H       10.7420    -0.4570     2.6870 H     1 <1>   0.1500 
 39 H        8.5770    -2.5420    -2.5850 H     1 <1>   0.0800 
 40 H        8.3500    -3.9440    -1.5200 H     1 <1>   0.0800 
 41 H        9.6260    -3.9470    -2.7310 H     1 <1>   0.0800 
 42 H       13.5790    -2.3660     0.0860 H     1 <1>   0.0800 
 43 H       12.3380    -1.8340    -1.0450 H     1 <1>   0.0800 
 44 H       12.2110    -3.4180    -0.2590 H     1 <1>   0.0800 
@<TRIPOS>BOND
  1   1   2  2   
  2   2   3  am  
  3   2   4  1   
  4   3   5  1   
  5   3   6  1   
  6   4  24  1   
  7   4  25  1   
  8   4  26  1   
  9   5   7  1   
 10   5   8  1   
 11   5  27  1   
 12   6   9  1   
 13   6  28  1   
 14   6  29  1   
 15   7  30  1   
 16   7  31  1   
 17   7  32  1   
 18   8  33  1   
 19   8  34  1   
 20   8  35  1   
 21   9  10  1   
 22   9  11  2   
 23  10  12  1   
 24  11  13  1   
 25  12  13  2   
 26  13  14  1   
 27  14  15  ar  
 28  14  16  ar  
 29  15  17  ar  
 30  15  36  1   
 31  16  18  ar  
 32  16  37  1   
 33  17  19  1   
 34  17  20  ar  
 35  18  20  ar  
 36  18  38  1   
 37  19  21  1   
 38  20  22  1   
 39  21  39  1   
 40  21  40  1   
 41  21  41  1   
 42  22  23  1   
 43  23  42  1   
 44  23  43  1   
 45  23  44  1   
@<TRIPOS>SUBSTRUCTURE
  1 ****  13 GROUP 4 **** **** 0

# MOE 2024.06 (io_trps.svl 2023.06)
