@<TRIPOS>MOLECULE
2-Ethylsulfanyl-5-(4-methoxy-phenyl)-1-methyl-5,8-dihydro-1H,6H-pyrido[2,3-d]pyr
43 45 1 0 0 
SMALL
USER_CHARGES


@<TRIPOS>ATOM
  1 S       -0.0570     0.6800    -0.8600 S.3   1 <1>  -0.3710 
  2 C        1.4500     1.4040    -0.2230 C.2   1 <1>   0.6410 
  3 C       -1.4420     1.6190    -0.0700 C.3   1 <1>   0.0700 
  4 N        1.3270     2.3360     0.6440 N.2   1 <1>  -0.6610 
  5 N        2.6360     0.9000    -0.7160 N.pl3 1 <1>  -0.5190 
  6 C       -1.6820     2.8900    -0.8820 C.3   1 <1>  -0.2400 
  7 C        2.4740     2.8980     1.1080 C.2   1 <1>   0.7670 
  8 C        3.8060     1.4880    -0.2910 C.2   1 <1>   0.2090 
  9 C        2.6140    -0.2550    -1.6670 C.3   1 <1>   0.1290 
 10 O        2.3660     3.7440     1.9880 O.2   1 <1>  -0.5700 
 11 C        3.7340     2.5010     0.6130 C.2   1 <1>  -0.1240 
 12 N        5.0250     1.0620    -0.7700 N.am  1 <1>  -0.5390 
 13 C        4.9940     3.2290     1.0740 C.3   1 <1>   0.2020 
 14 C        6.2260     1.4550    -0.2770 C.2   1 <1>   0.5690 
 15 C        5.1230     4.5520     0.3130 C.ar  1 <1>  -0.1440 
 16 C        6.2520     2.3460     0.9470 C.3   1 <1>  -0.0990 
 17 O        7.2490     1.0920    -0.7900 O.2   1 <1>  -0.5700 
 18 C        4.7160     5.7250     0.9330 C.ar  1 <1>  -0.1500 
 19 C        5.6180     4.6240    -0.9840 C.ar  1 <1>  -0.1500 
 20 C        4.8080     6.9440     0.2850 C.ar  1 <1>  -0.1500 
 21 C        5.7140     5.8410    -1.6350 C.ar  1 <1>  -0.1500 
 22 C        5.3130     7.0080    -1.0090 C.ar  1 <1>   0.0820 
 23 O        5.4390     8.1590    -1.7170 O.3   1 <1>  -0.3620 
 24 C        5.0220     9.3940    -1.1820 C.3   1 <1>   0.0400 
 25 H       -1.1680     1.8330     0.9480 H     1 <1>   0.0800 
 26 H       -2.3060     0.9780    -0.0870 H     1 <1>   0.0800 
 27 H       -0.8040     3.5110    -0.8690 H     1 <1>   0.0800 
 28 H       -2.4980     3.4450    -0.4580 H     1 <1>   0.0800 
 29 H       -1.9240     2.6420    -1.9000 H     1 <1>   0.0800 
 30 H        2.0130    -1.0500    -1.2620 H     1 <1>   0.0800 
 31 H        3.5960    -0.6500    -1.8440 H     1 <1>   0.0800 
 32 H        2.1920     0.0600    -2.6060 H     1 <1>   0.0800 
 33 H        5.0770     0.4410    -1.5740 H     1 <1>   0.3700 
 34 H        4.8940     3.4580     2.1220 H     1 <1>   0.0800 
 35 H        6.3160     1.7040     1.8060 H     1 <1>   0.0800 
 36 H        7.1350     2.9600     0.9300 H     1 <1>   0.0800 
 37 H        4.3110     5.6980     1.9310 H     1 <1>   0.1500 
 38 H        5.9350     3.7440    -1.5130 H     1 <1>   0.1500 
 39 H        4.4810     7.8260     0.8010 H     1 <1>   0.1500 
 40 H        6.1000     5.8930    -2.6360 H     1 <1>   0.1500 
 41 H        5.2070    10.1560    -1.9170 H     1 <1>   0.0800 
 42 H        5.5920     9.5990    -0.2930 H     1 <1>   0.0800 
 43 H        3.9700     9.3430    -0.9640 H     1 <1>   0.0800 
@<TRIPOS>BOND
  1   1   2  1   
  2   1   3  1   
  3   2   4  2   
  4   2   5  1   
  5   3   6  1   
  6   3  25  1   
  7   3  26  1   
  8   4   7  1   
  9   5   8  1   
 10   5   9  1   
 11   6  27  1   
 12   6  28  1   
 13   6  29  1   
 14   7  10  2   
 15   7  11  1   
 16   8  11  2   
 17   8  12  1   
 18   9  30  1   
 19   9  31  1   
 20   9  32  1   
 21  11  13  1   
 22  12  14  am  
 23  12  33  1   
 24  13  15  1   
 25  13  16  1   
 26  13  34  1   
 27  14  16  1   
 28  14  17  2   
 29  15  18  ar  
 30  15  19  ar  
 31  16  35  1   
 32  16  36  1   
 33  18  20  ar  
 34  18  37  1   
 35  19  21  ar  
 36  19  38  1   
 37  20  22  ar  
 38  20  39  1   
 39  21  22  ar  
 40  21  40  1   
 41  22  23  1   
 42  23  24  1   
 43  24  41  1   
 44  24  42  1   
 45  24  43  1   
@<TRIPOS>SUBSTRUCTURE
  1 ****  11 GROUP 4 **** **** 0

# MOE 2024.06 (io_trps.svl 2023.06)
