@<TRIPOS>MOLECULE
1-(3-Benzylsulfanyl-propionyl)-piperidine-4-carboxylic acid amide
43 44 1 0 0 
SMALL
USER_CHARGES


@<TRIPOS>ATOM
  1 S        0.1240     0.3570     0.0510 S.3   1 <1>  -0.4600 
  2 C       -1.2350    -0.5760    -0.7040 C.3   1 <1>   0.2140 
  3 C        1.5840    -0.6260    -0.3800 C.3   1 <1>   0.0700 
  4 C       -2.5350     0.1600    -0.4270 C.ar  1 <1>  -0.1430 
  5 C        2.8090     0.0710     0.2120 C.3   1 <1>  -0.0990 
  6 C       -3.2180    -0.0510     0.7610 C.ar  1 <1>  -0.1500 
  7 C       -3.0520     1.0470    -1.3600 C.ar  1 <1>  -0.1500 
  8 C        4.1070    -0.6630    -0.0870 C.2   1 <1>   0.5690 
  9 C       -4.4090     0.6100     1.0100 C.ar  1 <1>  -0.1500 
 10 C       -4.2420     1.7080    -1.1120 C.ar  1 <1>  -0.1500 
 11 O        4.0410    -1.7210    -0.6690 O.2   1 <1>  -0.5700 
 12 N        5.3110    -0.1280     0.3030 N.am  1 <1>  -0.6600 
 13 C       -4.9220     1.4890     0.0730 C.ar  1 <1>  -0.1500 
 14 C        6.5960    -0.7850    -0.0670 C.3   1 <1>   0.1400 
 15 C        5.4770     1.1330     1.0800 C.3   1 <1>   0.1400 
 16 C        7.4530     0.1870    -0.8830 C.3   1 <1>  -0.1600 
 17 C        6.3180     2.1240     0.2720 C.3   1 <1>  -0.1600 
 18 C        7.6740     1.5160    -0.1370 C.3   1 <1>  -0.0190 
 19 C        8.5010     2.4870    -0.9760 C.2   1 <1>   0.5690 
 20 O        8.0210     3.0370    -1.9330 O.2   1 <1>  -0.5700 
 21 N        9.7830     2.7290    -0.6440 N.am  1 <1>  -0.8000 
 22 H       -1.2370    -1.5570    -0.2660 H     1 <1>   0.0800 
 23 H       -1.0340    -0.6420    -1.7580 H     1 <1>   0.0800 
 24 H        1.6410    -0.6780    -1.4540 H     1 <1>   0.0800 
 25 H        1.4520    -1.6110     0.0330 H     1 <1>   0.0800 
 26 H        2.6890     0.1380     1.2770 H     1 <1>   0.0800 
 27 H        2.8720     1.0610    -0.1990 H     1 <1>   0.0800 
 28 H       -2.8210    -0.7280     1.4970 H     1 <1>   0.1500 
 29 H       -2.5270     1.2280    -2.2820 H     1 <1>   0.1500 
 30 H       -4.9330     0.4420     1.9340 H     1 <1>   0.1500 
 31 H       -4.6380     2.3950    -1.8400 H     1 <1>   0.1500 
 32 H       -5.8470     2.0030     0.2670 H     1 <1>   0.1500 
 33 H        6.4180    -1.6760    -0.6460 H     1 <1>   0.0800 
 34 H        7.1140    -1.0730     0.8310 H     1 <1>   0.0800 
 35 H        5.9740     0.9050     2.0080 H     1 <1>   0.0800 
 36 H        4.5300     1.5810     1.3180 H     1 <1>   0.0800 
 37 H        6.9610     0.3770    -1.8220 H     1 <1>   0.0800 
 38 H        8.4010    -0.2710    -1.0990 H     1 <1>   0.0800 
 39 H        6.4830     3.0130     0.8560 H     1 <1>   0.0800 
 40 H        5.7680     2.4110    -0.6080 H     1 <1>   0.0800 
 41 H        8.2240     1.3040     0.7630 H     1 <1>   0.0800 
 42 H       10.3240     3.3760    -1.2190 H     1 <1>   0.3700 
 43 H       10.2700     2.2980     0.1400 H     1 <1>   0.3700 
@<TRIPOS>BOND
  1   1   2  1   
  2   1   3  1   
  3   2   4  1   
  4   2  22  1   
  5   2  23  1   
  6   3   5  1   
  7   3  24  1   
  8   3  25  1   
  9   4   6  ar  
 10   4   7  ar  
 11   5   8  1   
 12   5  26  1   
 13   5  27  1   
 14   6   9  ar  
 15   6  28  1   
 16   7  10  ar  
 17   7  29  1   
 18   8  11  2   
 19   8  12  am  
 20   9  13  ar  
 21   9  30  1   
 22  10  13  ar  
 23  10  31  1   
 24  12  14  1   
 25  12  15  1   
 26  13  32  1   
 27  14  16  1   
 28  14  33  1   
 29  14  34  1   
 30  15  17  1   
 31  15  35  1   
 32  15  36  1   
 33  16  18  1   
 34  16  37  1   
 35  16  38  1   
 36  17  18  1   
 37  17  39  1   
 38  17  40  1   
 39  18  19  1   
 40  18  41  1   
 41  19  20  2   
 42  19  21  am  
 43  21  42  1   
 44  21  43  1   
@<TRIPOS>SUBSTRUCTURE
  1 ****   5 GROUP 4 **** **** 0

# MOE 2024.06 (io_trps.svl 2023.06)
