@<TRIPOS>MOLECULE
8-(2-Methoxy-5-methyl-phenyl)-1-methyl-3-(2-oxo-propyl)-5,6,7,8-tetrahydro-1H-1,
53 56 1 0 0 
SMALL
USER_CHARGES


@<TRIPOS>ATOM
  1 O        0.0670     0.5850    -0.4790 O.2   1 <1>  -0.5740 
  2 C        1.1500     0.8200     0.0170 C.2   1 <1>   0.6860 
  3 N        1.3640     2.0320     0.6590 N.am  1 <1>  -0.4250 
  4 N        2.1710    -0.1180    -0.0610 N.am  1 <1>  -0.4410 
  5 C        2.5810     2.3280     1.2520 C.2   1 <1>   0.7000 
  6 C        0.4700     3.1800     0.3090 C.3   1 <1>   0.1940 
  7 C        3.4040     0.2240     0.4590 C.2   1 <1>   0.4210 
  8 C        1.9660    -1.4180    -0.7620 C.3   1 <1>   0.0530 
  9 O        2.7250     3.3590     1.8900 O.2   1 <1>  -0.5740 
 10 C        3.6470     1.3890     1.0970 C.2   1 <1>   0.2710 
 11 C        0.9700     3.8850    -0.9510 C.2   1 <1>   0.4430 
 12 N        4.5570    -0.4980     0.4220 N.pl3 1 <1>  -0.7030 
 13 N        5.0030     1.3640     1.4520 N.pl3 1 <1>  -0.7670 
 14 O        2.0260     3.6180    -1.4490 O.2   1 <1>  -0.5740 
 15 C        0.0700     4.9450    -1.5470 C.3   1 <1>  -0.1860 
 16 C        5.5100     0.2160     1.0150 C.cat 1 <1>   1.0690 
 17 C        5.7810     2.4380     2.0960 C.3   1 <1>   0.3480 
 18 N        6.8030    -0.1310     1.1810 N.pl3 1 <1>  -0.5800 
 19 C        7.2540     2.2620     1.7170 C.3   1 <1>  -0.1670 
 20 C        7.3420    -1.3550     0.7270 C.ar  1 <1>   0.3050 
 21 C        7.7250     0.8090     1.8790 C.3   1 <1>   0.1610 
 22 C        7.2720    -1.7450    -0.6190 C.ar  1 <1>   0.0750 
 23 C        7.9570    -2.2030     1.6390 C.ar  1 <1>  -0.1570 
 24 O        6.6560    -0.9080    -1.5050 O.3   1 <1>  -0.3680 
 25 C        7.8150    -2.9620    -1.0150 C.ar  1 <1>  -0.1570 
 26 C        8.4950    -3.4140     1.2430 C.ar  1 <1>  -0.1500 
 27 C        6.8970    -1.0160    -2.8940 C.3   1 <1>   0.0320 
 28 C        8.4220    -3.7880    -0.0870 C.ar  1 <1>  -0.1570 
 29 C        9.1660    -4.3320     2.2500 C.3   1 <1>  -0.1040 
 30 H        0.4430     3.8850     1.1210 H     1 <1>   0.0730 
 31 H       -0.5350     2.8320     0.1480 H     1 <1>   0.0730 
 32 H        0.9220    -1.6830    -0.7700 H     1 <1>   0.0730 
 33 H        2.5070    -2.2020    -0.2630 H     1 <1>   0.0730 
 34 H        2.3080    -1.3380    -1.7800 H     1 <1>   0.0730 
 35 H        4.7610    -1.3480    -0.0980 H     1 <1>   0.4450 
 36 H       -0.1020     5.7280    -0.8320 H     1 <1>   0.0730 
 37 H       -0.8700     4.5100    -1.8350 H     1 <1>   0.0730 
 38 H        0.5360     5.3690    -2.4180 H     1 <1>   0.0730 
 39 H        5.6570     2.3740     3.1640 H     1 <1>   0.0730 
 40 H        5.4270     3.4020     1.7660 H     1 <1>   0.0730 
 41 H        7.8590     2.9070     2.3300 H     1 <1>   0.0730 
 42 H        7.3970     2.5700     0.6950 H     1 <1>   0.0730 
 43 H        8.7180     0.7080     1.4730 H     1 <1>   0.0730 
 44 H        7.7610     0.5520     2.9250 H     1 <1>   0.0730 
 45 H        8.0140    -1.9170     2.6740 H     1 <1>   0.1430 
 46 H        7.7770    -3.2920    -2.0370 H     1 <1>   0.1430 
 47 H        6.4480    -0.1690    -3.3810 H     1 <1>   0.0730 
 48 H        6.4510    -1.9230    -3.2620 H     1 <1>   0.0730 
 49 H        7.9590    -1.0140    -3.0680 H     1 <1>   0.0730 
 50 H        8.8420    -4.7280    -0.4050 H     1 <1>   0.1430 
 51 H        8.8530    -4.0990     3.2520 H     1 <1>   0.0730 
 52 H       10.2340    -4.2240     2.1880 H     1 <1>   0.0730 
 53 H        8.9110    -5.3580     2.0480 H     1 <1>   0.0730 
@<TRIPOS>BOND
  1   1   2  2   
  2   2   3  am  
  3   2   4  am  
  4   3   5  am  
  5   3   6  1   
  6   4   7  1   
  7   4   8  1   
  8   5   9  2   
  9   5  10  1   
 10   6  11  1   
 11   6  30  1   
 12   6  31  1   
 13   7  10  2   
 14   7  12  1   
 15   8  32  1   
 16   8  33  1   
 17   8  34  1   
 18  10  13  1   
 19  11  14  2   
 20  11  15  1   
 21  12  16  ar  
 22  12  35  1   
 23  13  16  ar  
 24  13  17  1   
 25  15  36  1   
 26  15  37  1   
 27  15  38  1   
 28  16  18  ar  
 29  17  19  1   
 30  17  39  1   
 31  17  40  1   
 32  18  20  1   
 33  18  21  1   
 34  19  21  1   
 35  19  41  1   
 36  19  42  1   
 37  20  22  ar  
 38  20  23  ar  
 39  21  43  1   
 40  21  44  1   
 41  22  24  1   
 42  22  25  ar  
 43  23  26  ar  
 44  23  45  1   
 45  24  27  1   
 46  25  28  ar  
 47  25  46  1   
 48  26  28  ar  
 49  26  29  1   
 50  27  47  1   
 51  27  48  1   
 52  27  49  1   
 53  28  50  1   
 54  29  51  1   
 55  29  52  1   
 56  29  53  1   
@<TRIPOS>SUBSTRUCTURE
  1 ****  12 GROUP 4 **** **** 0

# MOE 2024.06 (io_trps.svl 2023.06)
