@<TRIPOS>MOLECULE
3-(2-Methoxy-ethoxy)-benzaldehyde
25 25 1 0 0 
SMALL
USER_CHARGES


@<TRIPOS>ATOM
  1 O        0.1130     0.3070    -0.0070 O.2   1 <1>  -0.5700 
  2 C        1.1530     0.9150    -0.0060 C.2   1 <1>   0.4240 
  3 C        1.2810     2.3520    -0.0030 C.ar  1 <1>   0.0860 
  4 C        2.5370     2.9600    -0.0020 C.ar  1 <1>  -0.1500 
  5 C        0.1580     3.1790    -0.0010 C.ar  1 <1>  -0.1500 
  6 C        2.6660     4.3440     0.0010 C.ar  1 <1>   0.0830 
  7 C        0.2770     4.5570     0.0020 C.ar  1 <1>  -0.1500 
  8 O        3.8570     4.9920     0.0020 O.3   1 <1>  -0.3630 
  9 C        1.5310     5.1370     0.0030 C.ar  1 <1>  -0.1500 
 10 C        5.0830     4.2880     0.0010 C.3   1 <1>   0.1200 
 11 C        6.2240     5.3000     0.0020 C.3   1 <1>   0.1200 
 12 O        7.4270     4.5980     0.0010 O.3   1 <1>  -0.5600 
 13 C        8.5530     5.4140     0.0020 C.3   1 <1>   0.0400 
 14 H        2.0650     0.3470    -0.0070 H     1 <1>   0.0600 
 15 H        3.4070     2.3310    -0.0030 H     1 <1>   0.1500 
 16 H       -0.8220     2.7300    -0.0020 H     1 <1>   0.1500 
 17 H       -0.6040     5.1760     0.0030 H     1 <1>   0.1500 
 18 H        1.6370     6.2080     0.0050 H     1 <1>   0.1500 
 19 H        5.1270     3.6830    -0.8870 H     1 <1>   0.0800 
 20 H        5.1270     3.6800     0.8860 H     1 <1>   0.0800 
 21 H        6.1800     5.9090     0.8890 H     1 <1>   0.0800 
 22 H        6.1800     5.9120    -0.8820 H     1 <1>   0.0800 
 23 H        9.4240     4.7830     0.0000 H     1 <1>   0.0800 
 24 H        8.5500     6.0250     0.8890 H     1 <1>   0.0800 
 25 H        8.5490     6.0280    -0.8820 H     1 <1>   0.0800 
@<TRIPOS>BOND
  1   1   2  2   
  2   2   3  1   
  3   2  14  1   
  4   3   4  ar  
  5   3   5  ar  
  6   4   6  ar  
  7   4  15  1   
  8   5   7  ar  
  9   5  16  1   
 10   6   8  1   
 11   6   9  ar  
 12   7   9  ar  
 13   7  17  1   
 14   8  10  1   
 15   9  18  1   
 16  10  11  1   
 17  10  19  1   
 18  10  20  1   
 19  11  12  1   
 20  11  21  1   
 21  11  22  1   
 22  12  13  1   
 23  13  23  1   
 24  13  24  1   
 25  13  25  1   
@<TRIPOS>SUBSTRUCTURE
  1 ****   6 GROUP 4 **** **** 0

# MOE 2024.06 (io_trps.svl 2023.06)
