@<TRIPOS>MOLECULE
N-sec-Butyl-2-(1-phenyl-1H-tetrazol-5-ylsulfanyl)-acetamide
37 38 1 0 0 
SMALL
USER_CHARGES


@<TRIPOS>ATOM
  1 S        0.3100    -0.0870     0.6450 S.3   1 <1>  -0.2860 
  2 C       -1.4340    -0.4270     0.9320 C.2   1 <1>   0.2420 
  3 C        1.1470    -1.6600     1.1850 C.3   1 <1>   0.1310 
  4 N       -1.8660    -1.5390     1.3800 N.2   1 <1>  -0.3380 
  5 N       -2.4160     0.4370     0.6900 N.pl3 1 <1>   0.5930 
  6 C        2.6560    -1.5780     1.0120 C.2   1 <1>   0.5690 
  7 N       -3.1860    -1.3840     1.4230 N.2   1 <1>   0.0000 
  8 N       -3.5300    -0.2140     1.0110 N.2   1 <1>  -0.4180 
  9 C       -2.3770     1.7650     0.1780 C.ar  1 <1>  -0.0230 
 10 O        3.3470    -2.2970     1.6910 O.2   1 <1>  -0.5700 
 11 N        3.1860    -0.7160     0.1040 N.am  1 <1>  -0.7300 
 12 C       -3.1800     2.1250    -0.9010 C.ar  1 <1>  -0.1500 
 13 C       -1.5460     2.7310     0.7420 C.ar  1 <1>  -0.1500 
 14 C        4.6170    -0.5280    -0.1650 C.3   1 <1>   0.2200 
 15 C       -3.1460     3.4100    -1.4100 C.ar  1 <1>  -0.1500 
 16 C       -1.5110     4.0160     0.2330 C.ar  1 <1>  -0.1500 
 17 C        5.0020     0.8900     0.2800 C.3   1 <1>  -0.1600 
 18 C        4.8400    -0.7670    -1.6570 C.3   1 <1>  -0.2400 
 19 C       -2.3100     4.3570    -0.8450 C.ar  1 <1>  -0.1500 
 20 C        6.5070     1.1760     0.1650 C.3   1 <1>  -0.2400 
 21 H        0.7480    -2.4590     0.5890 H     1 <1>   0.0800 
 22 H        0.9000    -1.8150     2.2180 H     1 <1>   0.0800 
 23 H        2.5600    -0.0950    -0.4120 H     1 <1>   0.3700 
 24 H       -3.8390     1.3970    -1.3460 H     1 <1>   0.1500 
 25 H       -0.9220     2.4850     1.5850 H     1 <1>   0.1500 
 26 H        5.1870    -1.2480     0.4010 H     1 <1>   0.0800 
 27 H       -3.7700     3.6770    -2.2460 H     1 <1>   0.1500 
 28 H       -0.8640     4.7550     0.6740 H     1 <1>   0.1500 
 29 H        4.7190     1.0070     1.3120 H     1 <1>   0.0800 
 30 H        4.4600     1.6140    -0.3010 H     1 <1>   0.0800 
 31 H        4.3260    -0.0270    -2.2440 H     1 <1>   0.0800 
 32 H        4.4850    -1.7460    -1.9260 H     1 <1>   0.0800 
 33 H        5.8880    -0.7220    -1.8880 H     1 <1>   0.0800 
 34 H       -2.2830     5.3580    -1.2410 H     1 <1>   0.1500 
 35 H        7.0710     0.4410     0.7130 H     1 <1>   0.0800 
 36 H        6.7250     2.1470     0.5740 H     1 <1>   0.0800 
 37 H        6.8250     1.1660    -0.8620 H     1 <1>   0.0800 
@<TRIPOS>BOND
  1   1   2  1   
  2   1   3  1   
  3   2   4  2   
  4   2   5  1   
  5   3   6  1   
  6   3  21  1   
  7   3  22  1   
  8   4   7  1   
  9   5   8  1   
 10   5   9  1   
 11   6  10  2   
 12   6  11  am  
 13   7   8  2   
 14   9  12  ar  
 15   9  13  ar  
 16  11  14  1   
 17  11  23  1   
 18  12  15  ar  
 19  12  24  1   
 20  13  16  ar  
 21  13  25  1   
 22  14  17  1   
 23  14  18  1   
 24  14  26  1   
 25  15  19  ar  
 26  15  27  1   
 27  16  19  ar  
 28  16  28  1   
 29  17  20  1   
 30  17  29  1   
 31  17  30  1   
 32  18  31  1   
 33  18  32  1   
 34  18  33  1   
 35  19  34  1   
 36  20  35  1   
 37  20  36  1   
 38  20  37  1   
@<TRIPOS>SUBSTRUCTURE
  1 ****   1 GROUP 4 **** **** 0

# MOE 2024.06 (io_trps.svl 2023.06)
