@<TRIPOS>MOLECULE
5-(3-Chloro-phenyl)-2-ethylsulfanyl-1-methyl-5,8-dihydro-1H,6H-pyrido[2,3-d]pyri
39 41 1 0 0 
SMALL
USER_CHARGES


@<TRIPOS>ATOM
  1 CL      -1.5550    -2.0450     3.4380 Cl    1 <1>  -0.1770 
  2 C       -2.1410    -1.9850     1.7960 C.ar  1 <1>   0.1770 
  3 C       -2.1790    -3.1480     1.0500 C.ar  1 <1>  -0.1500 
  4 C       -2.5570    -0.7770     1.2710 C.ar  1 <1>  -0.1500 
  5 C       -2.6410    -3.1150    -0.2610 C.ar  1 <1>  -0.1440 
  6 C       -3.0260    -0.7390    -0.0300 C.ar  1 <1>  -0.1500 
  7 C       -3.0680    -1.9000    -0.7850 C.ar  1 <1>  -0.1500 
  8 C       -2.7130    -4.3690    -1.1380 C.3   1 <1>   0.2020 
  9 C       -3.9250    -5.2040    -0.7300 C.2   1 <1>  -0.1240 
 10 C       -1.4070    -5.1880    -1.1030 C.3   1 <1>  -0.0990 
 11 C       -3.7850    -6.2920     0.0720 C.2   1 <1>   0.2090 
 12 C       -5.2120    -4.8290    -1.1690 C.2   1 <1>   0.7670 
 13 C       -1.3670    -6.1850     0.0360 C.2   1 <1>   0.5690 
 14 N       -4.9140    -6.9820     0.4500 N.pl3 1 <1>  -0.5190 
 15 N       -2.5370    -6.6910     0.4990 N.am  1 <1>  -0.5390 
 16 O       -5.3780    -3.9020    -1.9540 O.2   1 <1>  -0.5700 
 17 N       -6.3190    -5.4990    -0.7550 N.2   1 <1>  -0.6610 
 18 O       -0.3180    -6.5290     0.5090 O.2   1 <1>  -0.5700 
 19 C       -6.1340    -6.5030     0.0150 C.2   1 <1>   0.6410 
 20 C       -4.8600    -8.2210     1.2870 C.3   1 <1>   0.1290 
 21 S       -7.5890    -7.3740     0.5840 S.3   1 <1>  -0.3710 
 22 C       -9.0350    -6.4450    -0.1040 C.3   1 <1>   0.0700 
 23 C       -9.3380    -5.2740     0.8290 C.3   1 <1>  -0.2400 
 24 H       -1.8480    -4.0560     1.5160 H     1 <1>   0.1500 
 25 H       -2.5180     0.1120     1.8730 H     1 <1>   0.1500 
 26 H       -3.3620     0.1910    -0.4560 H     1 <1>   0.1500 
 27 H       -3.4500    -1.8480    -1.7920 H     1 <1>   0.1500 
 28 H       -2.8430    -4.0540    -2.1600 H     1 <1>   0.0800 
 29 H       -0.5590    -4.5310    -1.0390 H     1 <1>   0.0800 
 30 H       -1.3210    -5.7470    -2.0160 H     1 <1>   0.0800 
 31 H       -2.4390    -7.3810     1.2400 H     1 <1>   0.3700 
 32 H       -3.8550    -8.5690     1.4280 H     1 <1>   0.0800 
 33 H       -5.4120    -9.0100     0.8060 H     1 <1>   0.0800 
 34 H       -5.2970    -8.0240     2.2510 H     1 <1>   0.0800 
 35 H       -9.8600    -7.1340    -0.1440 H     1 <1>   0.0800 
 36 H       -8.7850    -6.1180    -1.0980 H     1 <1>   0.0800 
 37 H       -9.5520    -5.6320     1.8200 H     1 <1>   0.0800 
 38 H      -10.1910    -4.7300     0.4650 H     1 <1>   0.0800 
 39 H       -8.4980    -4.6040     0.8700 H     1 <1>   0.0800 
@<TRIPOS>BOND
  1   1   2  1   
  2   2   3  ar  
  3   2   4  ar  
  4   3   5  ar  
  5   3  24  1   
  6   4   6  ar  
  7   4  25  1   
  8   5   7  ar  
  9   5   8  1   
 10   6   7  ar  
 11   6  26  1   
 12   7  27  1   
 13   8   9  1   
 14   8  10  1   
 15   8  28  1   
 16   9  11  2   
 17   9  12  1   
 18  10  13  1   
 19  10  29  1   
 20  10  30  1   
 21  11  14  1   
 22  11  15  1   
 23  12  16  2   
 24  12  17  1   
 25  13  15  am  
 26  13  18  2   
 27  14  19  1   
 28  14  20  1   
 29  15  31  1   
 30  17  19  2   
 31  19  21  1   
 32  20  32  1   
 33  20  33  1   
 34  20  34  1   
 35  21  22  1   
 36  22  23  1   
 37  22  35  1   
 38  22  36  1   
 39  23  37  1   
 40  23  38  1   
 41  23  39  1   
@<TRIPOS>SUBSTRUCTURE
  1 ****   9 GROUP 4 **** **** 0

# MOE 2024.06 (io_trps.svl 2023.06)
