@<TRIPOS>MOLECULE
8-(2,5-Dimethoxy-phenyl)-3-ethyl-1-methyl-7,8-dihydro-1H,6H-imidazo[2,1-f]purine
49 52 1 0 0 
SMALL
USER_CHARGES


@<TRIPOS>ATOM
  1 O        0.6330     2.1590    -1.5080 O.2   1 <1>  -0.5750 
  2 C        1.5850     1.9720    -0.7780 C.2   1 <1>   0.6860 
  3 N        1.8860     2.8840     0.2310 N.am  1 <1>  -0.4260 
  4 N        2.3750     0.8430    -0.9590 N.am  1 <1>  -0.4420 
  5 C        2.9810     2.6990     1.0650 C.2   1 <1>   0.6990 
  6 C        1.0350     4.0970     0.4010 C.3   1 <1>   0.1330 
  7 C        3.4740     0.6780    -0.1390 C.2   1 <1>   0.4200 
  8 C        2.0580    -0.1500    -2.0280 C.3   1 <1>   0.0520 
  9 O        3.2440     3.4910     1.9560 O.2   1 <1>  -0.5750 
 10 C        3.7990     1.5490     0.8450 C.2   1 <1>   0.2700 
 11 C        1.5900     5.2440    -0.4430 C.3   1 <1>  -0.2470 
 12 N        4.4040    -0.3240    -0.1630 N.pl3 1 <1>  -0.7040 
 13 N        4.9670     1.0400     1.4230 N.pl3 1 <1>  -0.7670 
 14 C        5.2880    -0.0610     0.7890 C.cat 1 <1>   1.0690 
 15 C        5.9430     1.3880     2.4660 C.3   1 <1>   0.3480 
 16 N        6.4050    -0.6380     1.2410 N.pl3 1 <1>  -0.5800 
 17 C        6.9460     0.2130     2.3510 C.3   1 <1>   0.1600 
 18 C        7.0250    -1.8310     0.8030 C.ar  1 <1>   0.3050 
 19 C        7.1580    -2.1590    -0.5570 C.ar  1 <1>   0.0750 
 20 C        7.5220    -2.7140     1.7510 C.ar  1 <1>  -0.1570 
 21 O        6.6770    -1.2880    -1.4950 O.3   1 <1>  -0.3690 
 22 C        7.7730    -3.3510    -0.9260 C.ar  1 <1>  -0.1570 
 23 C        8.1380    -3.8950     1.3830 C.ar  1 <1>   0.0750 
 24 C        7.2030    -1.2910    -2.8090 C.3   1 <1>   0.0320 
 25 C        8.2620    -4.2150     0.0370 C.ar  1 <1>  -0.1570 
 26 O        8.5860    -4.6800     2.3940 O.3   1 <1>  -0.3690 
 27 C        9.2280    -5.9090     2.1340 C.3   1 <1>   0.0320 
 28 H        1.0090     4.3880     1.4380 H     1 <1>   0.0720 
 29 H        0.0220     3.8830     0.1010 H     1 <1>   0.0720 
 30 H        1.0040    -0.1380    -2.2510 H     1 <1>   0.0720 
 31 H        2.3200    -1.1430    -1.7100 H     1 <1>   0.0720 
 32 H        2.6010     0.0960    -2.9230 H     1 <1>   0.0720 
 33 H        2.5880     5.4970    -0.1300 H     1 <1>   0.0720 
 34 H        0.9680     6.1120    -0.3200 H     1 <1>   0.0720 
 35 H        1.5920     4.9770    -1.4850 H     1 <1>   0.0720 
 36 H        4.5470    -1.0710    -0.8430 H     1 <1>   0.4450 
 37 H        5.4770     1.4180     3.4370 H     1 <1>   0.0720 
 38 H        6.4150     2.3330     2.2530 H     1 <1>   0.0720 
 39 H        6.9830    -0.3370     3.2760 H     1 <1>   0.0720 
 40 H        7.9310     0.5720     2.1050 H     1 <1>   0.0720 
 41 H        7.4340    -2.5050     2.7990 H     1 <1>   0.1430 
 42 H        7.8820    -3.6340    -1.9570 H     1 <1>   0.1430 
 43 H        6.8440    -0.4160    -3.3200 H     1 <1>   0.0720 
 44 H        6.8660    -2.1740    -3.3240 H     1 <1>   0.0720 
 45 H        8.2780    -1.2660    -2.7590 H     1 <1>   0.0720 
 46 H        8.7340    -5.1280    -0.2780 H     1 <1>   0.1430 
 47 H        9.4940    -6.3530     3.0760 H     1 <1>   0.0720 
 48 H       10.1150    -5.7260     1.5530 H     1 <1>   0.0720 
 49 H        8.5480    -6.5550     1.6060 H     1 <1>   0.0720 
@<TRIPOS>BOND
  1   1   2  2   
  2   2   3  am  
  3   2   4  am  
  4   3   5  am  
  5   3   6  1   
  6   4   7  1   
  7   4   8  1   
  8   5   9  2   
  9   5  10  1   
 10   6  11  1   
 11   6  28  1   
 12   6  29  1   
 13   7  10  2   
 14   7  12  1   
 15   8  30  1   
 16   8  31  1   
 17   8  32  1   
 18  10  13  1   
 19  11  33  1   
 20  11  34  1   
 21  11  35  1   
 22  12  14  ar  
 23  12  36  1   
 24  13  14  ar  
 25  13  15  1   
 26  14  16  ar  
 27  15  17  1   
 28  15  37  1   
 29  15  38  1   
 30  16  17  1   
 31  16  18  1   
 32  17  39  1   
 33  17  40  1   
 34  18  19  ar  
 35  18  20  ar  
 36  19  21  1   
 37  19  22  ar  
 38  20  23  ar  
 39  20  41  1   
 40  21  24  1   
 41  22  25  ar  
 42  22  42  1   
 43  23  25  ar  
 44  23  26  1   
 45  24  43  1   
 46  24  44  1   
 47  24  45  1   
 48  25  46  1   
 49  26  27  1   
 50  27  47  1   
 51  27  48  1   
 52  27  49  1   
@<TRIPOS>SUBSTRUCTURE
  1 ****  14 GROUP 4 **** **** 0

# MOE 2024.06 (io_trps.svl 2023.06)
