@<TRIPOS>MOLECULE
2-Cyclohexyl-N-[3-(4-methoxy-phenyl)-[1,2,4]oxadiazol-5-ylmethyl]-N-methyl-aceta
50 52 1 0 0 
SMALL
USER_CHARGES


@<TRIPOS>ATOM
  1 O        0.3640     1.3450    -2.3200 O.2   1 <1>  -0.5700 
  2 C        0.4990     1.7900    -1.2050 C.2   1 <1>   0.5690 
  3 N        1.6250     1.5220    -0.4660 N.am  1 <1>  -0.6600 
  4 C       -0.6280     2.6660    -0.6750 C.3   1 <1>  -0.0990 
  5 C        2.7570     0.7550    -1.0820 C.3   1 <1>   0.3200 
  6 C        1.8790     1.9930     0.9270 C.3   1 <1>   0.0600 
  7 C       -1.8780     1.8610    -0.2670 C.3   1 <1>  -0.0800 
  8 C        4.0400     1.5740    -1.1180 C.2   1 <1>   0.2980 
  9 C       -3.0290     2.8150     0.0990 C.3   1 <1>  -0.1600 
 10 C       -1.5950     0.8940     0.8980 C.3   1 <1>  -0.1600 
 11 O        4.1030     2.6020    -1.9220 O.3   1 <1>  -0.0190 
 12 N        5.0810     1.3620    -0.4210 N.2   1 <1>  -0.5650 
 13 C       -4.2920     2.0430     0.5060 C.3   1 <1>  -0.1600 
 14 C       -2.8560     0.1180     1.3000 C.3   1 <1>  -0.1600 
 15 N        5.2870     3.0890    -1.7180 N.2   1 <1>  -0.4100 
 16 C        5.8690     2.3600    -0.8330 C.2   1 <1>   0.4620 
 17 C       -4.0030     1.0720     1.6570 C.3   1 <1>  -0.1600 
 18 C        7.2110     2.5670    -0.3140 C.ar  1 <1>   0.0540 
 19 C        7.7730     1.7110     0.6360 C.ar  1 <1>  -0.1500 
 20 C        7.9980     3.6370    -0.7460 C.ar  1 <1>  -0.1500 
 21 C        9.0480     1.9140     1.1290 C.ar  1 <1>  -0.1500 
 22 C        9.2750     3.8480    -0.2590 C.ar  1 <1>  -0.1500 
 23 C        9.8110     2.9810     0.6890 C.ar  1 <1>   0.0820 
 24 O       11.0500     3.1120     1.2200 O.3   1 <1>  -0.3620 
 25 C       11.9060     4.1660     0.8390 C.3   1 <1>   0.0400 
 26 H       -0.8990     3.3350    -1.4720 H     1 <1>   0.0800 
 27 H       -0.2940     3.2780     0.1390 H     1 <1>   0.0800 
 28 H        2.5210     0.4500    -2.0850 H     1 <1>   0.0800 
 29 H        2.9270    -0.1350    -0.5030 H     1 <1>   0.0800 
 30 H        2.3650     2.9530     0.9020 H     1 <1>   0.0800 
 31 H        2.5180     1.2950     1.4430 H     1 <1>   0.0800 
 32 H        0.9620     2.0750     1.4800 H     1 <1>   0.0800 
 33 H       -2.1860     1.2780    -1.1200 H     1 <1>   0.0800 
 34 H       -3.2600     3.4450    -0.7430 H     1 <1>   0.0800 
 35 H       -2.7270     3.4500     0.9140 H     1 <1>   0.0800 
 36 H       -1.2430     1.4480     1.7500 H     1 <1>   0.0800 
 37 H       -0.8310     0.1900     0.6160 H     1 <1>   0.0800 
 38 H       -4.6580     1.4890    -0.3420 H     1 <1>   0.0800 
 39 H       -5.0590     2.7360     0.8030 H     1 <1>   0.0800 
 40 H       -2.6380    -0.5140     2.1430 H     1 <1>   0.0800 
 41 H       -3.1600    -0.5140     0.4830 H     1 <1>   0.0800 
 42 H       -4.8890     0.5030     1.8800 H     1 <1>   0.0800 
 43 H       -3.7410     1.6320     2.5390 H     1 <1>   0.0800 
 44 H        7.2030     0.8720     0.9960 H     1 <1>   0.1500 
 45 H        7.6010     4.3180    -1.4790 H     1 <1>   0.1500 
 46 H        9.4630     1.2440     1.8610 H     1 <1>   0.1500 
 47 H        9.8360     4.6870    -0.6250 H     1 <1>   0.1500 
 48 H       12.8250     4.0640     1.3880 H     1 <1>   0.0800 
 49 H       11.4360     5.1020     1.0820 H     1 <1>   0.0800 
 50 H       12.1000     4.0930    -0.2160 H     1 <1>   0.0800 
@<TRIPOS>BOND
  1   1   2  2   
  2   2   3  am  
  3   2   4  1   
  4   3   5  1   
  5   3   6  1   
  6   4   7  1   
  7   4  26  1   
  8   4  27  1   
  9   5   8  1   
 10   5  28  1   
 11   5  29  1   
 12   6  30  1   
 13   6  31  1   
 14   6  32  1   
 15   7   9  1   
 16   7  10  1   
 17   7  33  1   
 18   8  11  1   
 19   8  12  2   
 20   9  13  1   
 21   9  34  1   
 22   9  35  1   
 23  10  14  1   
 24  10  36  1   
 25  10  37  1   
 26  11  15  1   
 27  12  16  1   
 28  13  17  1   
 29  13  38  1   
 30  13  39  1   
 31  14  17  1   
 32  14  40  1   
 33  14  41  1   
 34  15  16  2   
 35  16  18  1   
 36  17  42  1   
 37  17  43  1   
 38  18  19  ar  
 39  18  20  ar  
 40  19  21  ar  
 41  19  44  1   
 42  20  22  ar  
 43  20  45  1   
 44  21  23  ar  
 45  21  46  1   
 46  22  23  ar  
 47  22  47  1   
 48  23  24  1   
 49  24  25  1   
 50  25  48  1   
 51  25  49  1   
 52  25  50  1   
@<TRIPOS>SUBSTRUCTURE
  1 ****   8 GROUP 4 **** **** 0

# MOE 2024.06 (io_trps.svl 2023.06)
