@<TRIPOS>MOLECULE
10-Oxo-2-[(Z)-propylimino]-1,10-dihydro-2H-1,9,10a-triaza-anthracene-3-carboxyli
58 61 1 0 0 
SMALL
USER_CHARGES


@<TRIPOS>ATOM
  1 O       -0.2150    -0.4040     0.6560 O.2   1 <1>  -0.5700 
  2 C        0.0320    -1.5500     0.3590 C.2   1 <1>   0.8650 
  3 N       -1.0360    -2.4520     0.2010 N.pl3 1 <1>  -0.5760 
  4 C        1.3830    -1.9760     0.1830 C.ar  1 <1>   0.0860 
  5 C       -0.7840    -3.7480    -0.1040 C.cat 1 <1>   0.7390 
  6 C       -2.3420    -2.0390     0.3550 C.2   1 <1>   0.1910 
  7 C        1.5680    -3.3170    -0.1280 C.ar  1 <1>   0.6590 
  8 C        2.5160    -1.1790     0.2940 C.ar  1 <1>  -0.1500 
  9 N        0.4910    -4.1340    -0.2520 N.pl3 1 <1>  -0.6530 
 10 C       -1.8440    -4.6530    -0.2590 C.2   1 <1>  -0.1800 
 11 C       -3.3870    -2.9080     0.2060 C.2   1 <1>  -0.1500 
 12 N        2.7240    -3.8990    -0.3230 N.ar  1 <1>  -0.6200 
 13 C        3.7630    -1.7500     0.0960 C.ar  1 <1>   0.0860 
 14 C       -3.1430    -4.2490    -0.1080 C.2   1 <1>  -0.1500 
 15 C        3.8010    -3.1300    -0.2210 C.ar  1 <1>   0.4100 
 16 C        4.9710    -0.9650     0.2150 C.2   1 <1>   0.5440 
 17 N        4.9910    -3.7600    -0.4420 N.pl3 1 <1>  -0.8690 
 18 O        5.9130    -1.1180    -0.5410 O.2   1 <1>  -0.5700 
 19 N        5.1030    -0.0080     1.1870 N.am  1 <1>  -0.7300 
 20 C        5.2110    -5.1900    -0.7590 C.3   1 <1>   0.2090 
 21 C        6.2520     0.9350     1.3030 C.3   1 <1>   0.1400 
 22 C        6.6100    -5.5830    -0.2910 C.3   1 <1>  -0.1600 
 23 C        7.5660     0.1890     1.6210 C.3   1 <1>   0.3430 
 24 C        6.9050    -7.0580    -0.5840 C.3   1 <1>  -0.2400 
 25 N        8.7100     0.5960     0.7390 N.4   1 <1>  -0.9590 
 26 C        8.5190     0.0960    -0.6730 C.3   1 <1>   0.3430 
 27 C       10.0130     0.0740     1.2780 C.3   1 <1>   0.3430 
 28 C        9.7500     0.3820    -1.5530 C.3   1 <1>   0.1200 
 29 C       11.1830     0.3780     0.3230 C.3   1 <1>   0.1200 
 30 O       10.9090    -0.1220    -0.9530 O.3   1 <1>  -0.5600 
 31 H       -2.5380    -1.0030     0.5980 H     1 <1>   0.1500 
 32 H        2.4170    -0.1290     0.5220 H     1 <1>   0.1500 
 33 H        0.7310    -5.1000    -0.4840 H     1 <1>   0.4500 
 34 H       -1.6260    -5.6770    -0.5010 H     1 <1>   0.1500 
 35 H       -4.4040    -2.5740     0.3290 H     1 <1>   0.1500 
 36 H       -3.9720    -4.9310    -0.2240 H     1 <1>   0.1500 
 37 H        5.8030    -3.1580    -0.6440 H     1 <1>   0.4000 
 38 H        4.3460     0.1340     1.8640 H     1 <1>   0.3700 
 39 H        5.1190    -5.3390    -1.8220 H     1 <1>   0.0800 
 40 H        4.4760    -5.7980    -0.2590 H     1 <1>   0.0800 
 41 H        6.0450     1.6420     2.0880 H     1 <1>   0.0800 
 42 H        6.3390     1.4770     0.3780 H     1 <1>   0.0800 
 43 H        6.6890    -5.4140     0.7690 H     1 <1>   0.0800 
 44 H        7.3410    -4.9750    -0.7940 H     1 <1>   0.0800 
 45 H        7.3980    -0.8700     1.5090 H     1 <1>   0.0800 
 46 H        7.8220     0.3760     2.6510 H     1 <1>   0.0800 
 47 H        6.1980    -7.6930    -0.0790 H     1 <1>   0.0800 
 48 H        7.8930    -7.3100    -0.2400 H     1 <1>   0.0800 
 49 H        6.8540    -7.2520    -1.6410 H     1 <1>   0.0800 
 50 H        8.7740     1.6210     0.7030 H     1 <1>   0.4500 
 51 H        7.6480     0.5510    -1.1160 H     1 <1>   0.0800 
 52 H        8.3510    -0.9690    -0.6610 H     1 <1>   0.0800 
 53 H        9.9520    -0.9950     1.4070 H     1 <1>   0.0800 
 54 H       10.2180     0.5120     2.2410 H     1 <1>   0.0800 
 55 H        9.8750     1.4380    -1.7170 H     1 <1>   0.0800 
 56 H        9.6390    -0.1020    -2.5080 H     1 <1>   0.0800 
 57 H       12.0820    -0.1000     0.6730 H     1 <1>   0.0800 
 58 H       11.3650     1.4360     0.2500 H     1 <1>   0.0800 
@<TRIPOS>BOND
  1   1   2  2   
  2   2   3  1   
  3   2   4  1   
  4   3   5  ar  
  5   3   6  1   
  6   4   7  ar  
  7   4   8  ar  
  8   5   9  ar  
  9   5  10  1   
 10   6  11  2   
 11   6  31  1   
 12   7   9  1   
 13   7  12  ar  
 14   8  13  ar  
 15   8  32  1   
 16   9  33  1   
 17  10  14  2   
 18  10  34  1   
 19  11  14  1   
 20  11  35  1   
 21  12  15  ar  
 22  13  15  ar  
 23  13  16  1   
 24  14  36  1   
 25  15  17  1   
 26  16  18  2   
 27  16  19  am  
 28  17  20  1   
 29  17  37  1   
 30  19  21  1   
 31  19  38  1   
 32  20  22  1   
 33  20  39  1   
 34  20  40  1   
 35  21  23  1   
 36  21  41  1   
 37  21  42  1   
 38  22  24  1   
 39  22  43  1   
 40  22  44  1   
 41  23  25  1   
 42  23  45  1   
 43  23  46  1   
 44  24  47  1   
 45  24  48  1   
 46  24  49  1   
 47  25  26  1   
 48  25  27  1   
 49  25  50  1   
 50  26  28  1   
 51  26  51  1   
 52  26  52  1   
 53  27  29  1   
 54  27  53  1   
 55  27  54  1   
 56  28  30  1   
 57  28  55  1   
 58  28  56  1   
 59  29  30  1   
 60  29  57  1   
 61  29  58  1   
@<TRIPOS>SUBSTRUCTURE
  1 ****  13 GROUP 4 **** **** 0

# MOE 2024.06 (io_trps.svl 2023.06)
