@<TRIPOS>MOLECULE
5-(2,3-Dimethoxy-phenyl)-2-ethylsulfanyl-5,8-dihydro-3H,6H-pyrido[2,3-d]pyrimidi
44 46 1 0 0 
SMALL
USER_CHARGES


@<TRIPOS>ATOM
  1 S        1.0940     0.2240     0.9800 S.3   1 <1>  -0.3710 
  2 C        2.1120     1.3160     0.0260 C.2   1 <1>   0.6410 
  3 C       -0.1930     1.3340     1.7010 C.3   1 <1>   0.0700 
  4 N        3.1350     0.7010    -0.6080 N.pl3 1 <1>  -0.5500 
  5 N        1.8470     2.5640    -0.0150 N.2   1 <1>  -0.6610 
  6 C       -1.1330     0.4750     2.5440 C.3   1 <1>  -0.2400 
  7 C        4.0180     1.4340    -1.3310 C.2   1 <1>   0.2090 
  8 C        2.6860     3.3330    -0.7750 C.2   1 <1>   0.7670 
  9 N        5.0250     0.7880    -2.0000 N.am  1 <1>  -0.5390 
 10 C        3.8400     2.7800    -1.3870 C.2   1 <1>  -0.1240 
 11 O        2.3610     4.5030    -0.9290 O.2   1 <1>  -0.5700 
 12 C        5.9990     1.4310    -2.6860 C.2   1 <1>   0.5690 
 13 C        4.8530     3.6590    -2.1310 C.3   1 <1>   0.2020 
 14 O        6.7370     0.8280    -3.4180 O.2   1 <1>  -0.5700 
 15 C        6.1640     2.9220    -2.4900 C.3   1 <1>  -0.0990 
 16 C        5.2280     4.9410    -1.3760 C.ar  1 <1>  -0.1440 
 17 C        5.6920     4.9200    -0.0600 C.ar  1 <1>   0.0820 
 18 C        5.1060     6.1620    -2.0280 C.ar  1 <1>  -0.1500 
 19 O        5.7580     3.7260     0.5900 O.3   1 <1>  -0.3630 
 20 C        6.0750     6.1160     0.5630 C.ar  1 <1>   0.0820 
 21 C        5.4470     7.3440    -1.3950 C.ar  1 <1>  -0.1500 
 22 C        4.9960     3.6030     1.7750 C.3   1 <1>   0.0400 
 23 O        6.6040     6.1560     1.8100 O.3   1 <1>  -0.3630 
 24 C        5.9320     7.3200    -0.1010 C.ar  1 <1>  -0.1500 
 25 C        7.9130     5.6480     1.9390 C.3   1 <1>   0.0400 
 26 H       -0.7090     1.8070     0.8830 H     1 <1>   0.0800 
 27 H        0.3130     2.0750     2.2950 H     1 <1>   0.0800 
 28 H        3.2200    -0.3070    -0.4870 H     1 <1>   0.4000 
 29 H       -1.6010    -0.2740     1.9300 H     1 <1>   0.0800 
 30 H       -1.8980     1.0910     2.9810 H     1 <1>   0.0800 
 31 H       -0.5850    -0.0090     3.3340 H     1 <1>   0.0800 
 32 H        5.0300    -0.2260    -2.1030 H     1 <1>   0.3700 
 33 H        4.3750     3.9320    -3.0560 H     1 <1>   0.0800 
 34 H        6.5880     3.3540    -3.3780 H     1 <1>   0.0800 
 35 H        6.8810     3.0440    -1.7010 H     1 <1>   0.0800 
 36 H        4.7350     6.2060    -3.0380 H     1 <1>   0.1500 
 37 H        5.3350     8.2830    -1.9100 H     1 <1>   0.1500 
 38 H        5.5350     4.0510     2.5900 H     1 <1>   0.0800 
 39 H        4.8430     2.5580     1.9700 H     1 <1>   0.0800 
 40 H        4.0490     4.0970     1.6400 H     1 <1>   0.0800 
 41 H        6.2060     8.2320     0.3960 H     1 <1>   0.1500 
 42 H        8.2270     5.7810     2.9580 H     1 <1>   0.0800 
 43 H        8.5630     6.1930     1.2770 H     1 <1>   0.0800 
 44 H        7.9150     4.6030     1.6860 H     1 <1>   0.0800 
@<TRIPOS>BOND
  1   1   2  1   
  2   1   3  1   
  3   2   4  1   
  4   2   5  2   
  5   3   6  1   
  6   3  26  1   
  7   3  27  1   
  8   4   7  1   
  9   4  28  1   
 10   5   8  1   
 11   6  29  1   
 12   6  30  1   
 13   6  31  1   
 14   7   9  1   
 15   7  10  2   
 16   8  10  1   
 17   8  11  2   
 18   9  12  am  
 19   9  32  1   
 20  10  13  1   
 21  12  14  2   
 22  12  15  1   
 23  13  15  1   
 24  13  16  1   
 25  13  33  1   
 26  15  34  1   
 27  15  35  1   
 28  16  17  ar  
 29  16  18  ar  
 30  17  19  1   
 31  17  20  ar  
 32  18  21  ar  
 33  18  36  1   
 34  19  22  1   
 35  20  23  1   
 36  20  24  ar  
 37  21  24  ar  
 38  21  37  1   
 39  22  38  1   
 40  22  39  1   
 41  22  40  1   
 42  23  25  1   
 43  24  41  1   
 44  25  42  1   
 45  25  43  1   
 46  25  44  1   
@<TRIPOS>SUBSTRUCTURE
  1 ****  10 GROUP 4 **** **** 0

# MOE 2024.06 (io_trps.svl 2023.06)
