@<TRIPOS>MOLECULE
1,4,10-Trioxa-7,13-diaza-cyclopentadecane-7,13-dicarboxylic acid diethyl ester
55 55 1 0 0 
SMALL
USER_CHARGES


@<TRIPOS>ATOM
  1 O        0.0910     0.0410    -0.1440 O.2   1 <1>  -0.5700 
  2 C        0.3760     1.1450     0.2820 C.2   1 <1>   0.7800 
  3 O       -0.5840     2.0550     0.4560 O.3   1 <1>  -0.4300 
  4 N        1.6590     1.5080     0.5840 N.am  1 <1>  -0.6600 
  5 C       -1.9270     1.7530     0.1570 C.3   1 <1>   0.1200 
  6 C        2.8020     0.5860     0.3190 C.3   1 <1>   0.1400 
  7 C        2.0050     2.8300     1.1960 C.3   1 <1>   0.1400 
  8 C       -2.7660     2.9930     0.4510 C.3   1 <1>  -0.2400 
  9 C        2.9750     0.3260    -1.1890 C.3   1 <1>   0.1200 
 10 C        2.5330     3.8340     0.1610 C.3   1 <1>   0.1200 
 11 O        4.2960    -0.0050    -1.5110 O.3   1 <1>  -0.5600 
 12 O        3.7320     3.3660    -0.3710 O.3   1 <1>  -0.5600 
 13 C        4.7690    -1.2230    -1.0150 C.3   1 <1>   0.1200 
 14 C        4.2730     4.1530    -1.3860 C.3   1 <1>   0.1200 
 15 C        6.2600    -1.3960    -1.3450 C.3   1 <1>   0.1200 
 16 C        5.4570     3.4220    -2.0340 C.3   1 <1>   0.1400 
 17 O        7.0600    -0.4530    -0.6830 O.3   1 <1>  -0.5600 
 18 N        6.5840     3.2040    -1.0800 N.am  1 <1>  -0.6600 
 19 C        7.1770     0.7970    -1.3070 C.3   1 <1>   0.1200 
 20 C        7.4490     4.2200    -0.7820 C.2   1 <1>   0.7800 
 21 C        6.6100     1.8810    -0.3880 C.3   1 <1>   0.1400 
 22 O        7.3510     5.3270    -1.2780 O.2   1 <1>  -0.5700 
 23 O        8.4320     3.9680     0.0830 O.3   1 <1>  -0.4300 
 24 C        9.3570     4.9680     0.4390 C.3   1 <1>   0.1200 
 25 C       10.3380     4.3680     1.4410 C.3   1 <1>  -0.2400 
 26 H       -2.2350     0.9230     0.7700 H     1 <1>   0.0800 
 27 H       -1.9920     1.4800    -0.8830 H     1 <1>   0.0800 
 28 H        2.6210    -0.3450     0.8260 H     1 <1>   0.0800 
 29 H        3.7040     1.0200     0.7100 H     1 <1>   0.0800 
 30 H        2.7450     2.6900     1.9630 H     1 <1>   0.0800 
 31 H        1.1340     3.2490     1.6680 H     1 <1>   0.0800 
 32 H       -2.6830     3.2580     1.4900 H     1 <1>   0.0800 
 33 H       -3.7990     2.7910     0.2310 H     1 <1>   0.0800 
 34 H       -2.4400     3.8150    -0.1600 H     1 <1>   0.0800 
 35 H        2.7440     1.2250    -1.7310 H     1 <1>   0.0800 
 36 H        2.3230    -0.4630    -1.5230 H     1 <1>   0.0800 
 37 H        2.7200     4.7840     0.6290 H     1 <1>   0.0800 
 38 H        1.8150     3.9540    -0.6320 H     1 <1>   0.0800 
 39 H        4.1970    -2.0130    -1.4690 H     1 <1>   0.0800 
 40 H        4.6400    -1.2560     0.0520 H     1 <1>   0.0800 
 41 H        4.5930     5.0920    -0.9690 H     1 <1>   0.0800 
 42 H        3.5130     4.3270    -2.1280 H     1 <1>   0.0800 
 43 H        6.4330    -1.3440    -2.4060 H     1 <1>   0.0800 
 44 H        6.5790    -2.3640    -1.0020 H     1 <1>   0.0800 
 45 H        5.8140     4.0110    -2.8610 H     1 <1>   0.0800 
 46 H        5.1160     2.4800    -2.4280 H     1 <1>   0.0800 
 47 H        6.6520     0.7910    -2.2460 H     1 <1>   0.0800 
 48 H        8.2220     0.9780    -1.4830 H     1 <1>   0.0800 
 49 H        5.6090     1.6230    -0.1030 H     1 <1>   0.0800 
 50 H        7.2060     1.9340     0.5050 H     1 <1>   0.0800 
 51 H        8.8160     5.7920     0.8720 H     1 <1>   0.0800 
 52 H        9.8650     5.2950    -0.4530 H     1 <1>   0.0800 
 53 H        9.8120     4.0330     2.3170 H     1 <1>   0.0800 
 54 H       11.0570     5.1110     1.7340 H     1 <1>   0.0800 
 55 H       10.8600     3.5400     0.9960 H     1 <1>   0.0800 
@<TRIPOS>BOND
  1   1   2  2   
  2   2   3  1   
  3   2   4  am  
  4   3   5  1   
  5   4   6  1   
  6   4   7  1   
  7   5   8  1   
  8   5  26  1   
  9   5  27  1   
 10   6   9  1   
 11   6  28  1   
 12   6  29  1   
 13   7  10  1   
 14   7  30  1   
 15   7  31  1   
 16   8  32  1   
 17   8  33  1   
 18   8  34  1   
 19   9  11  1   
 20   9  35  1   
 21   9  36  1   
 22  10  12  1   
 23  10  37  1   
 24  10  38  1   
 25  11  13  1   
 26  12  14  1   
 27  13  15  1   
 28  13  39  1   
 29  13  40  1   
 30  14  16  1   
 31  14  41  1   
 32  14  42  1   
 33  15  17  1   
 34  15  43  1   
 35  15  44  1   
 36  16  18  1   
 37  16  45  1   
 38  16  46  1   
 39  17  19  1   
 40  18  20  am  
 41  18  21  1   
 42  19  21  1   
 43  19  47  1   
 44  19  48  1   
 45  20  22  2   
 46  20  23  1   
 47  21  49  1   
 48  21  50  1   
 49  23  24  1   
 50  24  25  1   
 51  24  51  1   
 52  24  52  1   
 53  25  53  1   
 54  25  54  1   
 55  25  55  1   
@<TRIPOS>SUBSTRUCTURE
  1 ****  12 GROUP 4 **** **** 0

# MOE 2024.06 (io_trps.svl 2023.06)
