@<TRIPOS>MOLECULE
N-(2,5-Dimethoxy-phenyl)-2-(5-propyl-[1,3,4]oxadiazol-2-ylsulfanyl)-acetamide
42 43 1 0 0 
SMALL
USER_CHARGES


@<TRIPOS>ATOM
  1 S       -0.8350     0.7570    -1.4010 S.3   1 <1>  -0.2860 
  2 C        0.8040     0.0710    -1.2170 C.2   1 <1>   0.5340 
  3 C       -0.6960     1.7510    -2.9650 C.3   1 <1>   0.1310 
  4 O        1.2010    -0.2940    -0.0480 O.3   1 <1>  -0.2800 
  5 N        1.6720    -0.0820    -2.1410 N.2   1 <1>  -0.3380 
  6 C       -1.1110     3.1960    -2.7300 C.2   1 <1>   0.5690 
  7 C        2.4190    -0.6750    -0.2760 C.2   1 <1>   0.2980 
  8 N        2.7400    -0.5830    -1.5160 N.2   1 <1>  -0.3380 
  9 O       -2.0130     3.6450    -3.3920 O.2   1 <1>  -0.5700 
 10 N       -0.5030     3.9920    -1.8070 N.am  1 <1>  -0.5470 
 11 C        3.2720    -1.1430     0.8900 C.3   1 <1>   0.0200 
 12 C        0.4780     3.7040    -0.8420 C.ar  1 <1>   0.1170 
 13 C        4.7650    -1.2470     0.5380 C.3   1 <1>  -0.1600 
 14 C        0.1870     3.8920     0.5130 C.ar  1 <1>   0.0830 
 15 C        1.7350     3.2420    -1.2110 C.ar  1 <1>  -0.1500 
 16 C        5.6010    -1.6940     1.7430 C.3   1 <1>  -0.2400 
 17 O       -1.0520     4.3760     0.8290 O.3   1 <1>  -0.3630 
 18 C        1.1420     3.5900     1.4780 C.ar  1 <1>  -0.1500 
 19 C        2.6890     2.9430    -0.2430 C.ar  1 <1>   0.0830 
 20 C       -1.5540     4.2670     2.1430 C.3   1 <1>   0.0400 
 21 C        2.3830     3.1140     1.0960 C.ar  1 <1>  -0.1500 
 22 O        3.9370     2.4850    -0.5210 O.3   1 <1>  -0.3620 
 23 C        4.4010     2.4000    -1.8520 C.3   1 <1>   0.0400 
 24 H       -1.3450     1.2890    -3.6850 H     1 <1>   0.0800 
 25 H        0.3170     1.7090    -3.3130 H     1 <1>   0.0800 
 26 H       -1.0500     4.8310    -1.6040 H     1 <1>   0.3700 
 27 H        2.9070    -2.1000     1.2170 H     1 <1>   0.0800 
 28 H        3.1490    -0.4430     1.6960 H     1 <1>   0.0800 
 29 H        5.1160    -0.2870     0.1990 H     1 <1>   0.0800 
 30 H        4.8960    -1.9510    -0.2670 H     1 <1>   0.0800 
 31 H        1.9520     3.1220    -2.2530 H     1 <1>   0.1500 
 32 H        5.5060    -0.9890     2.5510 H     1 <1>   0.0800 
 33 H        6.6390    -1.7560     1.4660 H     1 <1>   0.0800 
 34 H        5.2820    -2.6630     2.0870 H     1 <1>   0.0800 
 35 H        0.9440     3.7220     2.5240 H     1 <1>   0.1500 
 36 H       -2.5830     4.5790     2.1340 H     1 <1>   0.0800 
 37 H       -0.9850     4.9100     2.7910 H     1 <1>   0.0800 
 38 H       -1.4870     3.2410     2.4600 H     1 <1>   0.0800 
 39 H        3.1270     2.8780     1.8350 H     1 <1>   0.1500 
 40 H        5.4100     2.0300    -1.8300 H     1 <1>   0.0800 
 41 H        4.3790     3.3810    -2.2920 H     1 <1>   0.0800 
 42 H        3.7790     1.7190    -2.4020 H     1 <1>   0.0800 
@<TRIPOS>BOND
  1   1   2  1   
  2   1   3  1   
  3   2   4  1   
  4   2   5  2   
  5   3   6  1   
  6   3  24  1   
  7   3  25  1   
  8   4   7  1   
  9   5   8  1   
 10   6   9  2   
 11   6  10  am  
 12   7   8  2   
 13   7  11  1   
 14  10  12  1   
 15  10  26  1   
 16  11  13  1   
 17  11  27  1   
 18  11  28  1   
 19  12  14  ar  
 20  12  15  ar  
 21  13  16  1   
 22  13  29  1   
 23  13  30  1   
 24  14  17  1   
 25  14  18  ar  
 26  15  19  ar  
 27  15  31  1   
 28  16  32  1   
 29  16  33  1   
 30  16  34  1   
 31  17  20  1   
 32  18  21  ar  
 33  18  35  1   
 34  19  21  ar  
 35  19  22  1   
 36  20  36  1   
 37  20  37  1   
 38  20  38  1   
 39  21  39  1   
 40  22  23  1   
 41  23  40  1   
 42  23  41  1   
 43  23  42  1   
@<TRIPOS>SUBSTRUCTURE
  1 ****  15 GROUP 4 **** **** 0

# MOE 2024.06 (io_trps.svl 2023.06)
