@<TRIPOS>MOLECULE
2-(4-Ethoxy-3-methoxy-phenyl)-5,7-diethyl-1,3-diaza-tricyclo[3.3.1.1*3,7*]decan-
57 60 1 0 0 
SMALL
USER_CHARGES


@<TRIPOS>ATOM
  1 O        0.6500    -0.1530     0.4600 O.2   1 <1>  -0.5700 
  2 C        1.1410    -1.2090     0.2000 C.2   1 <1>   0.4480 
  3 C        0.5780    -2.1400    -0.8790 C.3   1 <1>   0.0610 
  4 C        2.4300    -1.7160     0.8550 C.3   1 <1>   0.0610 
  5 C        1.6750    -2.2250    -1.9470 C.3   1 <1>   0.3430 
  6 C        0.4280    -3.5470    -0.2740 C.3   1 <1>   0.1100 
  7 C       -0.7430    -1.6510    -1.5300 C.3   1 <1>  -0.1600 
  8 C        3.4600    -1.8450    -0.2720 C.3   1 <1>   0.3430 
  9 C        2.1610    -3.1370     1.3670 C.3   1 <1>   0.1100 
 10 C        2.9610    -0.8330     2.0150 C.3   1 <1>  -0.1600 
 11 N        2.9430    -2.7600    -1.3500 N.4   1 <1>  -0.9590 
 12 N        1.7330    -3.9990     0.2410 N.3   1 <1>  -0.8100 
 13 C       -1.9670    -1.6650    -0.6000 C.3   1 <1>  -0.2400 
 14 C        3.5370     0.5290     1.5910 C.3   1 <1>  -0.2400 
 15 C        2.7340    -4.1320    -0.8290 C.3   1 <1>   0.8360 
 16 C        4.0460    -4.7720    -0.3500 C.ar  1 <1>  -0.1440 
 17 C        5.2750    -4.4290    -0.9040 C.ar  1 <1>  -0.1500 
 18 C        4.0340    -5.7430     0.6430 C.ar  1 <1>  -0.1500 
 19 C        6.4620    -4.9900    -0.4680 C.ar  1 <1>   0.0820 
 20 C        5.2080    -6.3200     1.0930 C.ar  1 <1>  -0.1500 
 21 O        7.5610    -4.5130    -1.1220 O.3   1 <1>  -0.3620 
 22 C        6.4380    -5.9500     0.5580 C.ar  1 <1>   0.0820 
 23 C        8.8310    -5.1230    -1.0460 C.3   1 <1>   0.0400 
 24 O        7.6000    -6.4950     1.0190 O.3   1 <1>  -0.3630 
 25 C        7.6350    -7.4960     2.0100 C.3   1 <1>   0.1200 
 26 C        9.0940    -7.8790     2.2390 C.3   1 <1>  -0.2400 
 27 H        1.3460    -2.8700    -2.7460 H     1 <1>   0.0800 
 28 H        1.8470    -1.2430    -2.3580 H     1 <1>   0.0800 
 29 H        0.0670    -4.2420    -1.0140 H     1 <1>   0.0800 
 30 H       -0.2840    -3.5330     0.5350 H     1 <1>   0.0800 
 31 H       -0.9730    -2.2620    -2.3870 H     1 <1>   0.0800 
 32 H       -0.6060    -0.6420    -1.8850 H     1 <1>   0.0800 
 33 H        4.3810    -2.2320     0.1340 H     1 <1>   0.0800 
 34 H        3.6590    -0.8690    -0.6850 H     1 <1>   0.0800 
 35 H        1.3910    -3.1180     2.1220 H     1 <1>   0.0800 
 36 H        3.0480    -3.5420     1.8270 H     1 <1>   0.0800 
 37 H        3.7320    -1.3640     2.5480 H     1 <1>   0.0800 
 38 H        2.1580    -0.6610     2.7130 H     1 <1>   0.0800 
 39 H        3.6580    -2.8520    -2.0770 H     1 <1>   0.4500 
 40 H       -2.2360    -2.6660    -0.3130 H     1 <1>   0.0800 
 41 H       -2.8120    -1.2330    -1.1090 H     1 <1>   0.0800 
 42 H       -1.7880    -1.0840     0.2880 H     1 <1>   0.0800 
 43 H        4.4220     0.4190     0.9900 H     1 <1>   0.0800 
 44 H        3.8070     1.0900     2.4690 H     1 <1>   0.0800 
 45 H        2.8110     1.1090     1.0470 H     1 <1>   0.0800 
 46 H        2.3250    -4.7590    -1.6060 H     1 <1>   0.0800 
 47 H        5.3610    -3.7140    -1.7000 H     1 <1>   0.1500 
 48 H        3.1030    -6.0620     1.0850 H     1 <1>   0.1500 
 49 H        5.1360    -7.0590     1.8690 H     1 <1>   0.1500 
 50 H        9.2320    -4.9750    -0.0590 H     1 <1>   0.0800 
 51 H        9.4720    -4.6580    -1.7720 H     1 <1>   0.0800 
 52 H        8.7300    -6.1720    -1.2650 H     1 <1>   0.0800 
 53 H        7.0700    -8.3440     1.6610 H     1 <1>   0.0800 
 54 H        7.2010    -7.1010     2.9130 H     1 <1>   0.0800 
 55 H        9.5230    -8.2590     1.3290 H     1 <1>   0.0800 
 56 H        9.1560    -8.6430     2.9930 H     1 <1>   0.0800 
 57 H        9.6530    -7.0230     2.5710 H     1 <1>   0.0800 
@<TRIPOS>BOND
  1   1   2  2   
  2   2   3  1   
  3   2   4  1   
  4   3   5  1   
  5   3   6  1   
  6   3   7  1   
  7   4   8  1   
  8   4   9  1   
  9   4  10  1   
 10   5  11  1   
 11   5  27  1   
 12   5  28  1   
 13   6  12  1   
 14   6  29  1   
 15   6  30  1   
 16   7  13  1   
 17   7  31  1   
 18   7  32  1   
 19   8  11  1   
 20   8  33  1   
 21   8  34  1   
 22   9  12  1   
 23   9  35  1   
 24   9  36  1   
 25  10  14  1   
 26  10  37  1   
 27  10  38  1   
 28  11  15  1   
 29  11  39  1   
 30  12  15  1   
 31  13  40  1   
 32  13  41  1   
 33  13  42  1   
 34  14  43  1   
 35  14  44  1   
 36  14  45  1   
 37  15  16  1   
 38  15  46  1   
 39  16  17  ar  
 40  16  18  ar  
 41  17  19  ar  
 42  17  47  1   
 43  18  20  ar  
 44  18  48  1   
 45  19  21  1   
 46  19  22  ar  
 47  20  22  ar  
 48  20  49  1   
 49  21  23  1   
 50  22  24  1   
 51  23  50  1   
 52  23  51  1   
 53  23  52  1   
 54  24  25  1   
 55  25  26  1   
 56  25  53  1   
 57  25  54  1   
 58  26  55  1   
 59  26  56  1   
 60  26  57  1   
@<TRIPOS>SUBSTRUCTURE
  1 ****  16 GROUP 4 **** **** 0

# MOE 2024.06 (io_trps.svl 2023.06)
