@<TRIPOS>MOLECULE
N-Cyclohexyl-2-(3-methoxy-phenoxy)-N-(3-phenyl-[1,2,4]oxadiazol-5-ylmethyl)-acet
58 61 1 0 0 
SMALL
USER_CHARGES


@<TRIPOS>ATOM
  1 O       -0.2510     1.7250     1.9650 O.2   1 <1>  -0.5700 
  2 C       -0.1330     2.8400     1.5090 C.2   1 <1>   0.5690 
  3 N        0.8590     3.1300     0.5990 N.am  1 <1>  -0.6600 
  4 C       -1.1120     3.8920     2.0380 C.3   1 <1>   0.1810 
  5 C        1.1220     4.5200     0.0970 C.3   1 <1>   0.2200 
  6 C        1.7430     2.0080     0.1160 C.3   1 <1>   0.3200 
  7 O       -1.9070     4.4810     1.0150 O.3   1 <1>  -0.3630 
  8 C        1.5480     4.5680    -1.3790 C.3   1 <1>  -0.1600 
  9 C        2.1470     5.2390     0.9870 C.3   1 <1>  -0.1600 
 10 C        3.1680     2.1120     0.6380 C.2   1 <1>   0.2980 
 11 C       -2.8390     3.7790     0.3220 C.ar  1 <1>   0.0820 
 12 C        1.7320     6.0210    -1.8410 C.3   1 <1>  -0.1600 
 13 C        2.3400     6.6920     0.5310 C.3   1 <1>  -0.1600 
 14 O        3.3670     2.0480     1.9280 O.3   1 <1>  -0.0190 
 15 N        4.2150     2.2670    -0.0670 N.2   1 <1>  -0.5650 
 16 C       -3.2310     2.4810     0.6340 C.ar  1 <1>  -0.1500 
 17 C       -3.4200     4.4250    -0.7570 C.ar  1 <1>  -0.1500 
 18 C        2.7420     6.7590    -0.9490 C.3   1 <1>  -0.1600 
 19 N        4.6490     2.1850     2.0570 N.2   1 <1>  -0.4100 
 20 C        5.1550     2.3150     0.8820 C.2   1 <1>   0.4620 
 21 C       -4.1940     1.8390    -0.1270 C.ar  1 <1>   0.0820 
 22 C       -4.3810     3.7890    -1.5220 C.ar  1 <1>  -0.1500 
 23 C        6.5650     2.5030     0.5810 C.ar  1 <1>   0.0540 
 24 O       -4.5220     0.5760     0.2450 O.3   1 <1>  -0.3630 
 25 C       -4.7700     2.4970    -1.2110 C.ar  1 <1>  -0.1500 
 26 C        7.5260     2.5260     1.5950 C.ar  1 <1>  -0.1500 
 27 C        7.0210     2.6700    -0.7290 C.ar  1 <1>  -0.1500 
 28 C       -5.4960    -0.1670    -0.4530 C.3   1 <1>   0.0400 
 29 C        8.8690     2.7070     1.3180 C.ar  1 <1>  -0.1500 
 30 C        8.3630     2.8520    -1.0130 C.ar  1 <1>  -0.1500 
 31 C        9.2910     2.8710     0.0120 C.ar  1 <1>  -0.1500 
 32 H       -0.5600     4.6810     2.5110 H     1 <1>   0.0800 
 33 H       -1.7700     3.4570     2.7680 H     1 <1>   0.0800 
 34 H        0.2110     5.0850     0.1530 H     1 <1>   0.0800 
 35 H        1.7590     1.9960    -0.9570 H     1 <1>   0.0800 
 36 H        1.3520     1.0550     0.4210 H     1 <1>   0.0800 
 37 H        0.7960     4.0960    -1.9860 H     1 <1>   0.0800 
 38 H        2.4840     4.0580    -1.5170 H     1 <1>   0.0800 
 39 H        3.0980     4.7420     0.9350 H     1 <1>   0.0800 
 40 H        1.8160     5.2290     2.0100 H     1 <1>   0.0800 
 41 H        0.7850     6.5320    -1.8070 H     1 <1>   0.0800 
 42 H        2.0770     6.0340    -2.8610 H     1 <1>   0.0800 
 43 H        3.1020     7.1590     1.1310 H     1 <1>   0.0800 
 44 H        1.4240     7.2390     0.6770 H     1 <1>   0.0800 
 45 H       -2.8110     1.9420     1.4610 H     1 <1>   0.1500 
 46 H       -3.1160     5.4280    -0.9930 H     1 <1>   0.1500 
 47 H        2.8110     7.7880    -1.2580 H     1 <1>   0.0800 
 48 H        3.7150     6.3140    -1.0730 H     1 <1>   0.0800 
 49 H       -4.8270     4.2990    -2.3580 H     1 <1>   0.1500 
 50 H       -5.5170     2.0250    -1.8190 H     1 <1>   0.1500 
 51 H        7.2150     2.4000     2.6180 H     1 <1>   0.1500 
 52 H        6.3140     2.6580    -1.5400 H     1 <1>   0.1500 
 53 H       -5.5860    -1.1270     0.0210 H     1 <1>   0.0800 
 54 H       -5.1750    -0.2920    -1.4720 H     1 <1>   0.0800 
 55 H       -6.4350     0.3550    -0.4040 H     1 <1>   0.0800 
 56 H        9.5860     2.7210     2.1200 H     1 <1>   0.1500 
 57 H        8.6850     2.9780    -2.0320 H     1 <1>   0.1500 
 58 H       10.3350     3.0120    -0.2060 H     1 <1>   0.1500 
@<TRIPOS>BOND
  1   1   2  2   
  2   2   3  am  
  3   2   4  1   
  4   3   5  1   
  5   3   6  1   
  6   4   7  1   
  7   4  32  1   
  8   4  33  1   
  9   5   8  1   
 10   5   9  1   
 11   5  34  1   
 12   6  10  1   
 13   6  35  1   
 14   6  36  1   
 15   7  11  1   
 16   8  12  1   
 17   8  37  1   
 18   8  38  1   
 19   9  13  1   
 20   9  39  1   
 21   9  40  1   
 22  10  14  1   
 23  10  15  2   
 24  11  16  ar  
 25  11  17  ar  
 26  12  18  1   
 27  12  41  1   
 28  12  42  1   
 29  13  18  1   
 30  13  43  1   
 31  13  44  1   
 32  14  19  1   
 33  15  20  1   
 34  16  21  ar  
 35  16  45  1   
 36  17  22  ar  
 37  17  46  1   
 38  18  47  1   
 39  18  48  1   
 40  19  20  2   
 41  20  23  1   
 42  21  24  1   
 43  21  25  ar  
 44  22  25  ar  
 45  22  49  1   
 46  23  26  ar  
 47  23  27  ar  
 48  24  28  1   
 49  25  50  1   
 50  26  29  ar  
 51  26  51  1   
 52  27  30  ar  
 53  27  52  1   
 54  28  53  1   
 55  28  54  1   
 56  28  55  1   
 57  29  31  ar  
 58  29  56  1   
 59  30  31  ar  
 60  30  57  1   
 61  31  58  1   
@<TRIPOS>SUBSTRUCTURE
  1 ****   3 GROUP 4 **** **** 0

# MOE 2024.06 (io_trps.svl 2023.06)
