@<TRIPOS>MOLECULE
3-Allyl-8-(2-methoxy-5-methyl-phenyl)-1,6-dimethyl-5,6,7,8-tetrahydro-1H-1,3,4b,
55 58 1 0 0 
SMALL
USER_CHARGES


@<TRIPOS>ATOM
  1 O        0.3290     0.7960     0.9090 O.2   1 <1>  -0.5740 
  2 C        1.4690     1.0630     0.5870 C.2   1 <1>   0.6870 
  3 N        1.7870     2.3390     0.1400 N.am  1 <1>  -0.4250 
  4 N        2.4550     0.0880     0.6610 N.am  1 <1>  -0.4410 
  5 C        3.0630     2.6590    -0.2940 C.2   1 <1>   0.7000 
  6 C        0.7730     3.4180     0.2540 C.3   1 <1>   0.2720 
  7 C        3.7300     0.4210     0.2480 C.2   1 <1>   0.4210 
  8 C        2.1500    -1.2880     1.1540 C.3   1 <1>   0.0530 
  9 O        3.3230     3.7630    -0.7440 O.2   1 <1>  -0.5740 
 10 C        4.0680     1.6440    -0.2150 C.2   1 <1>   0.2710 
 11 C        0.8720     4.0210     1.6420 C.2   1 <1>  -0.2940 
 12 N        4.8370    -0.3680     0.2330 N.pl3 1 <1>  -0.7030 
 13 N        5.4360     1.5820    -0.5140 N.pl3 1 <1>  -0.7670 
 14 C        1.3450     5.2400     1.9190 C.2   1 <1>  -0.3060 
 15 C        5.8570     0.3580    -0.2170 C.cat 1 <1>   1.0690 
 16 C        6.2970     2.6720    -1.0200 C.3   1 <1>   0.3490 
 17 N        7.1330    -0.0430    -0.3740 N.pl3 1 <1>  -0.5790 
 18 C        7.5750     2.0700    -1.6320 C.3   1 <1>  -0.0870 
 19 C        7.5730    -1.3500    -0.0850 C.ar  1 <1>   0.3050 
 20 C        8.1660     0.9710    -0.7280 C.3   1 <1>   0.1610 
 21 C        8.6200     3.1620    -1.9060 C.3   1 <1>  -0.2460 
 22 C        7.4370    -1.9140     1.1920 C.ar  1 <1>   0.0750 
 23 C        8.1490    -2.1060    -1.0970 C.ar  1 <1>  -0.1570 
 24 O        6.8540    -1.1620     2.1720 O.3   1 <1>  -0.3680 
 25 C        7.8810    -3.2110     1.4240 C.ar  1 <1>  -0.1570 
 26 C        8.5890    -3.3980    -0.8640 C.ar  1 <1>  -0.1500 
 27 C        7.0380    -1.4850     3.5370 C.3   1 <1>   0.0330 
 28 C        8.4530    -3.9440     0.4000 C.ar  1 <1>  -0.1570 
 29 C        9.2200    -4.2180    -1.9760 C.3   1 <1>  -0.1030 
 30 H       -0.2170     3.0280     0.0910 H     1 <1>   0.0730 
 31 H        0.9490     4.1750    -0.4910 H     1 <1>   0.0730 
 32 H        1.2090    -1.3080     1.6790 H     1 <1>   0.0730 
 33 H        2.9170    -1.6180     1.8330 H     1 <1>   0.0730 
 34 H        2.0920    -1.9670     0.3220 H     1 <1>   0.0730 
 35 H        0.5120     3.3520     2.4070 H     1 <1>   0.1430 
 36 H        4.9620    -1.3050     0.6120 H     1 <1>   0.4450 
 37 H        1.4030     5.6510     2.9130 H     1 <1>   0.1430 
 38 H        1.7130     5.9320     1.1790 H     1 <1>   0.1430 
 39 H        6.5480     3.3270    -0.2020 H     1 <1>   0.0730 
 40 H        5.7690     3.2460    -1.7640 H     1 <1>   0.0730 
 41 H        7.3170     1.6250    -2.5790 H     1 <1>   0.0730 
 42 H        8.9890     0.4950    -1.2350 H     1 <1>   0.0730 
 43 H        8.5460     1.4070     0.1810 H     1 <1>   0.0730 
 44 H        8.9260     3.6430    -0.9920 H     1 <1>   0.0730 
 45 H        8.2170     3.9110    -2.5670 H     1 <1>   0.0730 
 46 H        9.4910     2.7390    -2.3750 H     1 <1>   0.0730 
 47 H        8.2530    -1.6820    -2.0790 H     1 <1>   0.1430 
 48 H        7.7930    -3.6760     2.3890 H     1 <1>   0.1430 
 49 H        6.6360    -0.6840     4.1310 H     1 <1>   0.0730 
 50 H        8.0910    -1.5900     3.7350 H     1 <1>   0.0730 
 51 H        6.5140    -2.3980     3.7590 H     1 <1>   0.0730 
 52 H        8.7960    -4.9470     0.5910 H     1 <1>   0.1430 
 53 H        9.0420    -3.7700    -2.9370 H     1 <1>   0.0730 
 54 H        8.8070    -5.2110    -1.9840 H     1 <1>   0.0730 
 55 H       10.2820    -4.2880    -1.8200 H     1 <1>   0.0730 
@<TRIPOS>BOND
  1   1   2  2   
  2   2   3  am  
  3   2   4  am  
  4   3   5  am  
  5   3   6  1   
  6   4   7  1   
  7   4   8  1   
  8   5   9  2   
  9   5  10  1   
 10   6  11  1   
 11   6  30  1   
 12   6  31  1   
 13   7  10  2   
 14   7  12  1   
 15   8  32  1   
 16   8  33  1   
 17   8  34  1   
 18  10  13  1   
 19  11  14  2   
 20  11  35  1   
 21  12  15  ar  
 22  12  36  1   
 23  13  15  ar  
 24  13  16  1   
 25  14  37  1   
 26  14  38  1   
 27  15  17  ar  
 28  16  18  1   
 29  16  39  1   
 30  16  40  1   
 31  17  19  1   
 32  17  20  1   
 33  18  20  1   
 34  18  21  1   
 35  18  41  1   
 36  19  22  ar  
 37  19  23  ar  
 38  20  42  1   
 39  20  43  1   
 40  21  44  1   
 41  21  45  1   
 42  21  46  1   
 43  22  24  1   
 44  22  25  ar  
 45  23  26  ar  
 46  23  47  1   
 47  24  27  1   
 48  25  28  ar  
 49  25  48  1   
 50  26  28  ar  
 51  26  29  1   
 52  27  49  1   
 53  27  50  1   
 54  27  51  1   
 55  28  52  1   
 56  29  53  1   
 57  29  54  1   
 58  29  55  1   
@<TRIPOS>SUBSTRUCTURE
  1 ****  15 GROUP 4 **** **** 0

# MOE 2024.06 (io_trps.svl 2023.06)
