@<TRIPOS>MOLECULE
2-[(E)-3-Morpholin-4-yl-propylimino]-10-oxo-1,10-dihydro-2H-1,9,10a-triaza-anthr
57 60 1 0 0 
SMALL
USER_CHARGES


@<TRIPOS>ATOM
  1 O       -0.4100    -0.9600    -1.9500 O.2   1 <1>  -0.5700 
  2 C       -0.0200    -1.8780    -1.2430 C.2   1 <1>   0.5440 
  3 N       -0.9210    -2.8160    -0.7630 N.am  1 <1>  -0.2290 
  4 C        1.3520    -2.0030    -0.8920 C.ar  1 <1>   0.0860 
  5 C       -0.4460    -3.8340     0.0620 C.2   1 <1>   0.4960 
  6 C       -2.2800    -2.7660    -1.0770 C.2   1 <1>  -0.0410 
  7 C        1.7130    -3.0670    -0.0560 C.ar  1 <1>   0.4890 
  8 C        2.3490    -1.1340    -1.3200 C.ar  1 <1>  -0.1500 
  9 N        0.8050    -3.9560     0.4030 N.2   1 <1>  -0.6290 
 10 C       -1.3890    -4.7810     0.5490 C.2   1 <1>  -0.1360 
 11 C       -3.1630    -3.6800    -0.6030 C.2   1 <1>  -0.1500 
 12 N        2.9630    -3.2830     0.3460 N.ar  1 <1>  -0.6200 
 13 C        3.6480    -1.3440    -0.9090 C.ar  1 <1>   0.0860 
 14 C       -2.7100    -4.7210     0.2370 C.2   1 <1>  -0.1500 
 15 C        3.8950    -2.4590    -0.0740 C.ar  1 <1>   0.4100 
 16 C        4.6880    -0.4350    -1.3050 C.2   1 <1>   0.5440 
 17 N        5.1210    -2.8170     0.4080 N.pl3 1 <1>  -0.8690 
 18 O        5.3860    -0.6590    -2.2750 O.2   1 <1>  -0.5700 
 19 N        4.9480     0.7150    -0.6270 N.am  1 <1>  -0.7300 
 20 C        6.3580    -2.7930    -0.3890 C.3   1 <1>   0.2090 
 21 C        4.3840     1.1410     0.6690 C.3   1 <1>   0.1400 
 22 C        7.3010    -3.8780     0.1160 C.3   1 <1>  -0.1600 
 23 C        5.4060     0.8490     1.7610 C.3   1 <1>  -0.2400 
 24 C        8.5860    -3.8510    -0.7070 C.3   1 <1>   0.3430 
 25 N        9.4830    -4.9720    -0.3170 N.4   1 <1>  -0.9590 
 26 C       10.0430    -4.8680     1.0770 C.3   1 <1>   0.3430 
 27 C       10.5930    -5.1870    -1.3060 C.3   1 <1>   0.3430 
 28 C       10.9970    -6.0430     1.3940 C.3   1 <1>   0.1200 
 29 C       11.5120    -6.3570    -0.8820 C.3   1 <1>   0.1200 
 30 O       11.0770    -6.9390     0.3170 O.3   1 <1>  -0.5600 
 31 H       -2.6040    -1.9620    -1.7200 H     1 <1>   0.1500 
 32 H        2.1070    -0.3050    -1.9630 H     1 <1>   0.1500 
 33 H       -1.0000    -5.5560     1.1830 H     1 <1>   0.1500 
 34 H       -4.2110    -3.6350    -0.8490 H     1 <1>   0.1500 
 35 H       -3.4200    -5.4410     0.6080 H     1 <1>   0.1500 
 36 H        5.0320    -3.6170     1.0440 H     1 <1>   0.4000 
 37 H        5.6940     1.2990    -1.0110 H     1 <1>   0.3700 
 38 H        6.8190    -1.8230    -0.2930 H     1 <1>   0.0800 
 39 H        6.1180    -2.9630    -1.4270 H     1 <1>   0.0800 
 40 H        3.4680     0.6130     0.8730 H     1 <1>   0.0800 
 41 H        4.1670     2.1960     0.6340 H     1 <1>   0.0800 
 42 H        6.8170    -4.8330     0.0060 H     1 <1>   0.0800 
 43 H        7.5130    -3.6890     1.1520 H     1 <1>   0.0800 
 44 H        5.6100    -0.2060     1.8040 H     1 <1>   0.0800 
 45 H        5.0140     1.1580     2.7130 H     1 <1>   0.0800 
 46 H        6.3180     1.3870     1.5770 H     1 <1>   0.0800 
 47 H        9.0910    -2.9070    -0.5690 H     1 <1>   0.0800 
 48 H        8.3310    -3.9440    -1.7510 H     1 <1>   0.0800 
 49 H        8.9480    -5.8560    -0.3240 H     1 <1>   0.4500 
 50 H        9.2420    -4.8690     1.7980 H     1 <1>   0.0800 
 51 H       10.5800    -3.9420     1.1910 H     1 <1>   0.0800 
 52 H       11.1860    -4.2920    -1.3940 H     1 <1>   0.0800 
 53 H       10.1830    -5.4000    -2.2800 H     1 <1>   0.0800 
 54 H       10.6400    -6.5900     2.2490 H     1 <1>   0.0800 
 55 H       11.9870    -5.6830     1.6160 H     1 <1>   0.0800 
 56 H       12.5260    -6.0190    -0.7530 H     1 <1>   0.0800 
 57 H       11.5090    -7.1240    -1.6380 H     1 <1>   0.0800 
@<TRIPOS>BOND
  1   1   2  2   
  2   2   3  am  
  3   2   4  1   
  4   3   5  1   
  5   3   6  1   
  6   4   7  ar  
  7   4   8  ar  
  8   5   9  2   
  9   5  10  1   
 10   6  11  2   
 11   6  31  1   
 12   7   9  1   
 13   7  12  ar  
 14   8  13  ar  
 15   8  32  1   
 16  10  14  2   
 17  10  33  1   
 18  11  14  1   
 19  11  34  1   
 20  12  15  ar  
 21  13  15  ar  
 22  13  16  1   
 23  14  35  1   
 24  15  17  1   
 25  16  18  2   
 26  16  19  am  
 27  17  20  1   
 28  17  36  1   
 29  19  21  1   
 30  19  37  1   
 31  20  22  1   
 32  20  38  1   
 33  20  39  1   
 34  21  23  1   
 35  21  40  1   
 36  21  41  1   
 37  22  24  1   
 38  22  42  1   
 39  22  43  1   
 40  23  44  1   
 41  23  45  1   
 42  23  46  1   
 43  24  25  1   
 44  24  47  1   
 45  24  48  1   
 46  25  26  1   
 47  25  27  1   
 48  25  49  1   
 49  26  28  1   
 50  26  50  1   
 51  26  51  1   
 52  27  29  1   
 53  27  52  1   
 54  27  53  1   
 55  28  30  1   
 56  28  54  1   
 57  28  55  1   
 58  29  30  1   
 59  29  56  1   
 60  29  57  1   
@<TRIPOS>SUBSTRUCTURE
  1 ****  15 GROUP 4 **** **** 0

# MOE 2024.06 (io_trps.svl 2023.06)
