@<TRIPOS>MOLECULE
2,7-Dimethyl-5-oxo-4-phenyl-1,4,5,6,7,8-hexahydro-quinoline-3-carboxylic acid (5
54 57 1 0 0 
SMALL
USER_CHARGES


@<TRIPOS>ATOM
  1 O       -0.0800    -0.8540    -1.8050 O.2   1 <1>  -0.5700 
  2 C        0.0270    -1.7980    -1.0590 C.2   1 <1>   0.4950 
  3 C        1.2650    -2.3090    -0.5730 C.2   1 <1>  -0.1240 
  4 C       -1.2530    -2.5170    -0.6650 C.3   1 <1>  -0.0990 
  5 C        1.3670    -3.4390     0.1720 C.2   1 <1>  -0.0380 
  6 C        2.5250    -1.5190    -0.9310 C.3   1 <1>   0.3400 
  7 C       -1.1050    -3.3010     0.6520 C.3   1 <1>  -0.0800 
  8 N        2.5840    -3.9560     0.5430 N.pl3 1 <1>  -0.6000 
  9 C        0.1350    -4.2130     0.6160 C.3   1 <1>  -0.0220 
 10 C        3.8240    -2.2650    -0.6050 C.2   1 <1>  -0.1240 
 11 C        2.5300    -0.2010    -0.1530 C.ar  1 <1>  -0.1440 
 12 C       -2.3750    -4.1070     0.9550 C.3   1 <1>  -0.2400 
 13 C        3.7800    -3.4250     0.1070 C.2   1 <1>  -0.0380 
 14 C        4.9850    -1.5890    -1.0950 C.2   1 <1>   0.6160 
 15 C        2.5350    -0.2050     1.2360 C.ar  1 <1>  -0.1500 
 16 C        2.5370     1.0140    -0.8230 C.ar  1 <1>  -0.1500 
 17 C        4.9860    -4.2720     0.4810 C.3   1 <1>  -0.1020 
 18 O        5.0320    -1.1910    -2.2430 O.2   1 <1>  -0.5700 
 19 N        6.0380    -1.3830    -0.2460 N.am  1 <1>  -0.5470 
 20 C        2.5510     0.9850     1.9430 C.ar  1 <1>  -0.1500 
 21 C        2.5520     2.2040    -0.1180 C.ar  1 <1>  -0.1500 
 22 C        7.3140    -0.8930    -0.4000 C.ar  1 <1>   0.4270 
 23 C        2.5600     2.1910     1.2650 C.ar  1 <1>  -0.1500 
 24 N        8.0620    -1.0940     0.6750 N.ar  1 <1>  -0.6200 
 25 C        7.7830    -0.2540    -1.5460 C.ar  1 <1>  -0.1500 
 26 C        9.3070    -0.6520     0.6060 C.ar  1 <1>   0.1600 
 27 C        9.0810     0.1990    -1.6010 C.ar  1 <1>  -0.1500 
 28 C        9.8670    -0.0090    -0.4870 C.ar  1 <1>  -0.1440 
 29 C       11.3100     0.4670    -0.4790 C.3   1 <1>  -0.0970 
 30 H       -1.5180    -3.1840    -1.4650 H     1 <1>   0.0800 
 31 H       -2.0390    -1.7890    -0.5650 H     1 <1>   0.0800 
 32 H        2.5000    -1.3220    -1.9890 H     1 <1>   0.0800 
 33 H       -0.9630    -2.5850     1.4460 H     1 <1>   0.0800 
 34 H        2.6070    -4.8220     1.0940 H     1 <1>   0.4000 
 35 H        0.2970    -4.6160     1.6000 H     1 <1>   0.0800 
 36 H       -0.0230    -5.0330    -0.0630 H     1 <1>   0.0800 
 37 H       -2.5580    -4.8360     0.1850 H     1 <1>   0.0800 
 38 H       -3.2260    -3.4520     1.0160 H     1 <1>   0.0800 
 39 H       -2.2780    -4.6190     1.8970 H     1 <1>   0.0800 
 40 H        2.5280    -1.1390     1.7710 H     1 <1>   0.1500 
 41 H        2.5290     1.0370    -1.9000 H     1 <1>   0.1500 
 42 H        4.7950    -5.3030     0.2460 H     1 <1>   0.0800 
 43 H        5.1830    -4.1880     1.5350 H     1 <1>   0.0800 
 44 H        5.8670    -3.9810    -0.0610 H     1 <1>   0.0800 
 45 H        5.8780    -1.6840     0.7090 H     1 <1>   0.3700 
 46 H        2.5560     0.9720     3.0180 H     1 <1>   0.1500 
 47 H        2.5580     3.1400    -0.6490 H     1 <1>   0.1500 
 48 H        2.5720     3.1170     1.8120 H     1 <1>   0.1500 
 49 H        7.1370    -0.1070    -2.3900 H     1 <1>   0.1500 
 50 H        9.9190    -0.8120     1.4770 H     1 <1>   0.1500 
 51 H        9.4610     0.6940    -2.4780 H     1 <1>   0.1500 
 52 H       11.8490     0.0120    -1.2910 H     1 <1>   0.0800 
 53 H       11.7970     0.2070     0.4440 H     1 <1>   0.0800 
 54 H       11.3430     1.5350    -0.5950 H     1 <1>   0.0800 
@<TRIPOS>BOND
  1   1   2  2   
  2   2   3  1   
  3   2   4  1   
  4   3   5  2   
  5   3   6  1   
  6   4   7  1   
  7   4  30  1   
  8   4  31  1   
  9   5   8  1   
 10   5   9  1   
 11   6  10  1   
 12   6  11  1   
 13   6  32  1   
 14   7   9  1   
 15   7  12  1   
 16   7  33  1   
 17   8  13  1   
 18   8  34  1   
 19   9  35  1   
 20   9  36  1   
 21  10  13  2   
 22  10  14  1   
 23  11  15  ar  
 24  11  16  ar  
 25  12  37  1   
 26  12  38  1   
 27  12  39  1   
 28  13  17  1   
 29  14  18  2   
 30  14  19  am  
 31  15  20  ar  
 32  15  40  1   
 33  16  21  ar  
 34  16  41  1   
 35  17  42  1   
 36  17  43  1   
 37  17  44  1   
 38  19  22  1   
 39  19  45  1   
 40  20  23  ar  
 41  20  46  1   
 42  21  23  ar  
 43  21  47  1   
 44  22  24  ar  
 45  22  25  ar  
 46  23  48  1   
 47  24  26  ar  
 48  25  27  ar  
 49  25  49  1   
 50  26  28  ar  
 51  26  50  1   
 52  27  28  ar  
 53  27  51  1   
 54  28  29  1   
 55  29  52  1   
 56  29  53  1   
 57  29  54  1   
@<TRIPOS>SUBSTRUCTURE
  1 ****  10 GROUP 4 **** **** 0

# MOE 2024.06 (io_trps.svl 2023.06)
