@<TRIPOS>MOLECULE
1-Ethyl-3-(3-p-tolyl-[1,2,4]oxadiazol-5-ylmethyl)-urea
35 36 1 0 0 
SMALL
USER_CHARGES


@<TRIPOS>ATOM
  1 O        0.0750     1.0470    -1.1480 O.2   1 <1>  -0.5700 
  2 C        0.5080     1.6170    -0.1670 C.2   1 <1>   0.6900 
  3 N        1.7890     1.4510     0.2120 N.am  1 <1>  -0.7300 
  4 N       -0.2700     2.4310     0.5770 N.am  1 <1>  -0.7300 
  5 C        2.7910     0.6880    -0.5740 C.3   1 <1>   0.3200 
  6 C       -1.6820     2.7420     0.2890 C.3   1 <1>   0.1400 
  7 C        4.0590     1.5010    -0.7830 C.2   1 <1>   0.2980 
  8 C       -1.9140     4.2270     0.5390 C.3   1 <1>  -0.2400 
  9 O        4.0290     2.4980    -1.6270 O.3   1 <1>  -0.0190 
 10 N        5.1720     1.3130    -0.2020 N.2   1 <1>  -0.5650 
 11 N        5.2280     2.9870    -1.5800 N.2   1 <1>  -0.4100 
 12 C        5.9090     2.2910    -0.7410 C.2   1 <1>   0.4620 
 13 C        7.3040     2.5080    -0.3920 C.ar  1 <1>   0.0540 
 14 C        8.0410     3.5450    -0.9660 C.ar  1 <1>  -0.1500 
 15 C        7.9670     1.6960     0.5300 C.ar  1 <1>  -0.1500 
 16 C        9.3680     3.7600    -0.6400 C.ar  1 <1>  -0.1500 
 17 C        9.2940     1.9060     0.8600 C.ar  1 <1>  -0.1500 
 18 C       10.0050     2.9400     0.2760 C.ar  1 <1>  -0.1430 
 19 C       11.4600     3.1740     0.6370 C.3   1 <1>  -0.0970 
 20 H        2.1590     2.0120     0.9760 H     1 <1>   0.3700 
 21 H        0.1090     2.8330     1.4300 H     1 <1>   0.3700 
 22 H        2.3900     0.4110    -1.5330 H     1 <1>   0.0800 
 23 H        3.0370    -0.2130    -0.0410 H     1 <1>   0.0800 
 24 H       -2.3160     2.1510     0.9290 H     1 <1>   0.0800 
 25 H       -1.9110     2.5000    -0.7370 H     1 <1>   0.0800 
 26 H       -1.7180     4.4740     1.5670 H     1 <1>   0.0800 
 27 H       -2.9370     4.4730     0.3190 H     1 <1>   0.0800 
 28 H       -1.2790     4.8130    -0.1020 H     1 <1>   0.0800 
 29 H        7.5680     4.1950    -1.6810 H     1 <1>   0.1500 
 30 H        7.4370     0.8850     0.9970 H     1 <1>   0.1500 
 31 H        9.9040     4.5700    -1.1030 H     1 <1>   0.1500 
 32 H        9.7710     1.2600     1.5760 H     1 <1>   0.1500 
 33 H       11.5230     3.8440     1.4750 H     1 <1>   0.0800 
 34 H       11.9890     3.6050    -0.1930 H     1 <1>   0.0800 
 35 H       11.9360     2.2460     0.8980 H     1 <1>   0.0800 
@<TRIPOS>BOND
  1   1   2  2   
  2   2   3  am  
  3   2   4  am  
  4   3   5  1   
  5   3  20  1   
  6   4   6  1   
  7   4  21  1   
  8   5   7  1   
  9   5  22  1   
 10   5  23  1   
 11   6   8  1   
 12   6  24  1   
 13   6  25  1   
 14   7   9  1   
 15   7  10  2   
 16   8  26  1   
 17   8  27  1   
 18   8  28  1   
 19   9  11  1   
 20  10  12  1   
 21  11  12  2   
 22  12  13  1   
 23  13  14  ar  
 24  13  15  ar  
 25  14  16  ar  
 26  14  29  1   
 27  15  17  ar  
 28  15  30  1   
 29  16  18  ar  
 30  16  31  1   
 31  17  18  ar  
 32  17  32  1   
 33  18  19  1   
 34  19  33  1   
 35  19  34  1   
 36  19  35  1   
@<TRIPOS>SUBSTRUCTURE
  1 ****  10 GROUP 4 **** **** 0

# MOE 2024.06 (io_trps.svl 2023.06)
