@<TRIPOS>MOLECULE
7-Methyl-3-oxo-3,4-dihydro-2H-benzo[1,4]oxazine-6-sulfonic acid cyclopropylamide
33 35 1 0 0 
SMALL
USER_CHARGES


@<TRIPOS>ATOM
  1 S        0.0720     0.0920     1.7290 S.o2  1 <1>   1.4470 
  2 O       -0.3700    -1.0540     2.4960 O.2   1 <1>  -0.6500 
  3 O        0.8550     1.1040     2.3980 O.2   1 <1>  -0.6500 
  4 N        1.0770    -0.5210     0.5320 N.am  1 <1>  -0.7890 
  5 C       -1.3300     0.8320     0.8280 C.ar  1 <1>  -0.0090 
  6 C        0.5600    -1.6800    -0.1540 C.3   1 <1>   0.1310 
  7 C       -1.2000     1.9250    -0.0370 C.ar  1 <1>  -0.1430 
  8 C       -2.5980     0.2790     0.9930 C.ar  1 <1>  -0.1500 
  9 C        1.1730    -2.0300    -1.4650 C.3   1 <1>  -0.2000 
 10 C       -0.2200    -1.4730    -1.4070 C.3   1 <1>  -0.2000 
 11 C       -2.3090     2.4270    -0.7040 C.ar  1 <1>  -0.1500 
 12 C        0.1440     2.6020    -0.2810 C.3   1 <1>  -0.0970 
 13 C       -3.7090     0.7760     0.3330 C.ar  1 <1>   0.1170 
 14 C       -3.5560     1.8640    -0.5250 C.ar  1 <1>   0.0830 
 15 N       -4.9740     0.2100     0.4980 N.am  1 <1>  -0.5470 
 16 O       -4.6110     2.3870    -1.2090 O.3   1 <1>  -0.3620 
 17 C       -6.0840     0.7510    -0.0580 C.2   1 <1>   0.5690 
 18 C       -5.9500     2.0760    -0.8090 C.3   1 <1>   0.1810 
 19 O       -7.1590     0.2170     0.0530 O.2   1 <1>  -0.5700 
 20 H        1.9090    -0.8060     1.0410 H     1 <1>   0.4200 
 21 H        0.2850    -2.4910     0.5060 H     1 <1>   0.1000 
 22 H       -2.7230    -0.5620     1.6520 H     1 <1>   0.1500 
 23 H        1.2930    -3.0670    -1.7260 H     1 <1>   0.1000 
 24 H        1.9610    -1.4080    -1.8530 H     1 <1>   0.1000 
 25 H       -0.3880    -0.4710    -1.7610 H     1 <1>   0.1000 
 26 H       -1.0410    -2.1330    -1.6230 H     1 <1>   0.1000 
 27 H       -2.2180     3.2640    -1.3740 H     1 <1>   0.1500 
 28 H        0.8550     1.9000    -0.6780 H     1 <1>   0.0800 
 29 H        0.5300     3.0100     0.6360 H     1 <1>   0.0800 
 30 H        0.0500     3.4080    -0.9860 H     1 <1>   0.0800 
 31 H       -5.1020    -0.6550     1.0220 H     1 <1>   0.3700 
 32 H       -6.5570     2.0500    -1.6940 H     1 <1>   0.0800 
 33 H       -6.2910     2.8720    -0.1740 H     1 <1>   0.0800 
@<TRIPOS>BOND
  1   1   2  2   
  2   1   3  2   
  3   1   4  am  
  4   1   5  1   
  5   4   6  1   
  6   4  20  1   
  7   5   7  ar  
  8   5   8  ar  
  9   6   9  1   
 10   6  10  1   
 11   6  21  1   
 12   7  11  ar  
 13   7  12  1   
 14   8  13  ar  
 15   8  22  1   
 16   9  10  1   
 17   9  23  1   
 18   9  24  1   
 19  10  25  1   
 20  10  26  1   
 21  11  14  ar  
 22  11  27  1   
 23  12  28  1   
 24  12  29  1   
 25  12  30  1   
 26  13  14  ar  
 27  13  15  1   
 28  14  16  1   
 29  15  17  am  
 30  15  31  1   
 31  16  18  1   
 32  17  18  1   
 33  17  19  2   
 34  18  32  1   
 35  18  33  1   
@<TRIPOS>SUBSTRUCTURE
  1 ****   8 GROUP 4 **** **** 0

# MOE 2024.06 (io_trps.svl 2023.06)
