@<TRIPOS>MOLECULE
6-(5-Methyl-2-oxo-imidazolidin-4-yl)-hexanoic acid (3-ethyl-phenyl)-amide
50 51 1 0 0 
SMALL
USER_CHARGES


@<TRIPOS>ATOM
  1 O       -0.1380    -1.2190    -1.8820 O.2   1 <1>  -0.5700 
  2 C       -0.0270    -2.1180    -1.0790 C.2   1 <1>   0.6900 
  3 N        1.0480    -2.9060    -0.9710 N.am  1 <1>  -0.7300 
  4 N       -0.9560    -2.4460    -0.1750 N.am  1 <1>  -0.7300 
  5 C        0.9370    -3.8070     0.1910 C.3   1 <1>   0.2200 
  6 C       -0.5510    -3.6250     0.6010 C.3   1 <1>   0.2200 
  7 C        1.9070    -3.3620     1.3010 C.3   1 <1>  -0.1600 
  8 C       -1.4340    -4.8010     0.1850 C.3   1 <1>  -0.2400 
  9 C        3.3910    -3.7040     1.0640 C.3   1 <1>  -0.1600 
 10 C        4.0330    -2.9490    -0.1090 C.3   1 <1>  -0.1600 
 11 C        5.5570    -3.1140    -0.1090 C.3   1 <1>  -0.1600 
 12 C        6.1910    -2.3860    -1.3050 C.3   1 <1>  -0.0990 
 13 C        7.7010    -2.5190    -1.3120 C.2   1 <1>   0.5690 
 14 O        8.2010    -3.3200    -2.0620 O.2   1 <1>  -0.5700 
 15 N        8.4040    -1.7110    -0.4610 N.am  1 <1>  -0.5470 
 16 C        9.7790    -1.5930    -0.2060 C.ar  1 <1>   0.1170 
 17 C       10.2310    -0.4670     0.4740 C.ar  1 <1>  -0.1500 
 18 C       10.7140    -2.5510    -0.5850 C.ar  1 <1>  -0.1500 
 19 C       11.5720    -0.2900     0.7690 C.ar  1 <1>  -0.1440 
 20 C       12.0560    -2.3830    -0.2980 C.ar  1 <1>  -0.1500 
 21 C       12.4860    -1.2550     0.3770 C.ar  1 <1>  -0.1500 
 22 C       12.0420     0.9510     1.5110 C.3   1 <1>  -0.0170 
 23 C       12.3870     2.0680     0.5230 C.3   1 <1>  -0.2400 
 24 H        1.9450    -2.5730    -1.3120 H     1 <1>   0.3700 
 25 H       -1.9270    -2.1770    -0.3210 H     1 <1>   0.3700 
 26 H        1.1350    -4.8250    -0.0980 H     1 <1>   0.0800 
 27 H       -0.6510    -3.4330     1.6560 H     1 <1>   0.0800 
 28 H        1.6120    -3.8600     2.2080 H     1 <1>   0.0800 
 29 H        1.7940    -2.3050     1.4740 H     1 <1>   0.0800 
 30 H       -1.3520    -4.9780    -0.8730 H     1 <1>   0.0800 
 31 H       -2.4610    -4.6000     0.4340 H     1 <1>   0.0800 
 32 H       -1.1280    -5.6910     0.7060 H     1 <1>   0.0800 
 33 H        3.4970    -4.7640     0.9070 H     1 <1>   0.0800 
 34 H        3.9290    -3.4590     1.9640 H     1 <1>   0.0800 
 35 H        3.7880    -1.9020    -0.0410 H     1 <1>   0.0800 
 36 H        3.6500    -3.3340    -1.0380 H     1 <1>   0.0800 
 37 H        5.8070    -4.1610    -0.1640 H     1 <1>   0.0800 
 38 H        5.9620    -2.7250     0.8090 H     1 <1>   0.0800 
 39 H        5.9320    -1.3430    -1.2870 H     1 <1>   0.0800 
 40 H        5.8110    -2.8020    -2.2210 H     1 <1>   0.0800 
 41 H        7.8280    -1.0640     0.0710 H     1 <1>   0.3700 
 42 H        9.5250     0.2850     0.7730 H     1 <1>   0.1500 
 43 H       10.4020    -3.4370    -1.1060 H     1 <1>   0.1500 
 44 H       12.7660    -3.1320    -0.6020 H     1 <1>   0.1500 
 45 H       13.5320    -1.1310     0.5940 H     1 <1>   0.1500 
 46 H       12.9080     0.7140     2.1040 H     1 <1>   0.0800 
 47 H       11.2710     1.2880     2.1820 H     1 <1>   0.0800 
 48 H       13.1690     1.7470    -0.1410 H     1 <1>   0.0800 
 49 H       12.7190     2.9430     1.0530 H     1 <1>   0.0800 
 50 H       11.5220     2.3250    -0.0630 H     1 <1>   0.0800 
@<TRIPOS>BOND
  1   1   2  2   
  2   2   3  am  
  3   2   4  am  
  4   3   5  1   
  5   3  24  1   
  6   4   6  1   
  7   4  25  1   
  8   5   6  1   
  9   5   7  1   
 10   5  26  1   
 11   6   8  1   
 12   6  27  1   
 13   7   9  1   
 14   7  28  1   
 15   7  29  1   
 16   8  30  1   
 17   8  31  1   
 18   8  32  1   
 19   9  10  1   
 20   9  33  1   
 21   9  34  1   
 22  10  11  1   
 23  10  35  1   
 24  10  36  1   
 25  11  12  1   
 26  11  37  1   
 27  11  38  1   
 28  12  13  1   
 29  12  39  1   
 30  12  40  1   
 31  13  14  2   
 32  13  15  am  
 33  15  16  1   
 34  15  41  1   
 35  16  17  ar  
 36  16  18  ar  
 37  17  19  ar  
 38  17  42  1   
 39  18  20  ar  
 40  18  43  1   
 41  19  21  ar  
 42  19  22  1   
 43  20  21  ar  
 44  20  44  1   
 45  21  45  1   
 46  22  23  1   
 47  22  46  1   
 48  22  47  1   
 49  23  48  1   
 50  23  49  1   
 51  23  50  1   
@<TRIPOS>SUBSTRUCTURE
  1 ****  11 GROUP 4 **** **** 0

# MOE 2024.06 (io_trps.svl 2023.06)
