@<TRIPOS>MOLECULE
2-Methylsulfanyl-5-(2,4,5-trimethoxy-phenyl)-5,8-dihydro-3H,6H-pyrido[2,3-d]pyri
45 47 1 0 0 
SMALL
USER_CHARGES


@<TRIPOS>ATOM
  1 S        0.3200    -0.1670    -0.2230 S.3   1 <1>  -0.3710 
  2 C        1.8120     0.7870    -0.1390 C.2   1 <1>   0.6410 
  3 C       -0.6190     0.5790    -1.6320 C.3   1 <1>  -0.0100 
  4 N        2.6630     0.3940     0.8350 N.pl3 1 <1>  -0.5500 
  5 N        2.0050     1.7460    -0.9580 N.2   1 <1>  -0.6610 
  6 C        3.8270     1.0640     1.0250 C.2   1 <1>   0.2090 
  7 C        3.1820     2.4290    -0.8240 C.2   1 <1>   0.7670 
  8 N        4.7010     0.6120     1.9790 N.am  1 <1>  -0.5390 
  9 C        4.0900     2.1340     0.2290 C.2   1 <1>  -0.1240 
 10 O        3.4190     3.2750    -1.6750 O.2   1 <1>  -0.5700 
 11 C        5.8620     1.2370     2.2880 C.2   1 <1>   0.5690 
 12 C        5.3760     2.9470     0.4360 C.3   1 <1>   0.2020 
 13 O        6.6820     0.7010     2.9840 O.2   1 <1>  -0.5700 
 14 C        6.0850     2.6410     1.7740 C.3   1 <1>  -0.0990 
 15 C        5.1590     4.4640     0.3860 C.ar  1 <1>  -0.1430 
 16 C        6.1010     5.3020    -0.2090 C.ar  1 <1>   0.0830 
 17 C        4.0170     5.0230     0.9470 C.ar  1 <1>  -0.1500 
 18 O        7.2220     4.7320    -0.7320 O.3   1 <1>  -0.3630 
 19 C        5.8870     6.6780    -0.2420 C.ar  1 <1>  -0.1500 
 20 C        3.7930     6.3860     0.8960 C.ar  1 <1>   0.0830 
 21 C        8.0580     5.4500    -1.6140 C.3   1 <1>   0.0400 
 22 C        4.7470     7.2270     0.3170 C.ar  1 <1>   0.0830 
 23 O        2.6240     6.8470     1.4040 O.3   1 <1>  -0.3630 
 24 O        4.6240     8.5790     0.2690 O.3   1 <1>  -0.3620 
 25 C        1.6660     7.2140     0.4370 C.3   1 <1>   0.0400 
 26 C        4.4420     9.2580     1.4930 C.3   1 <1>   0.0400 
 27 H       -1.5440     0.0420    -1.7350 H     1 <1>   0.0800 
 28 H       -0.0160     0.4860    -2.5170 H     1 <1>   0.0800 
 29 H       -0.7960     1.6140    -1.3990 H     1 <1>   0.0800 
 30 H        2.3770    -0.3970     1.4100 H     1 <1>   0.4000 
 31 H        4.5770    -0.2960     2.4260 H     1 <1>   0.3700 
 32 H        6.0330     2.6490    -0.3630 H     1 <1>   0.0800 
 33 H        7.1400     2.8210     1.6680 H     1 <1>   0.0800 
 34 H        5.7210     3.3060     2.5350 H     1 <1>   0.0800 
 35 H        3.2730     4.4090     1.4220 H     1 <1>   0.1500 
 36 H        6.5940     7.3500    -0.6860 H     1 <1>   0.1500 
 37 H        8.5430     6.2410    -1.0700 H     1 <1>   0.0800 
 38 H        7.4620     5.8420    -2.4190 H     1 <1>   0.0800 
 39 H        8.7950     4.7710    -2.0020 H     1 <1>   0.0800 
 40 H        0.7720     7.5240     0.9460 H     1 <1>   0.0800 
 41 H        1.4620     6.3630    -0.1890 H     1 <1>   0.0800 
 42 H        2.0550     8.0250    -0.1540 H     1 <1>   0.0800 
 43 H        4.6620    10.2980     1.3360 H     1 <1>   0.0800 
 44 H        5.1130     8.8450     2.2260 H     1 <1>   0.0800 
 45 H        3.4230     9.1470     1.8130 H     1 <1>   0.0800 
@<TRIPOS>BOND
  1   1   2  1   
  2   1   3  1   
  3   2   4  1   
  4   2   5  2   
  5   3  27  1   
  6   3  28  1   
  7   3  29  1   
  8   4   6  1   
  9   4  30  1   
 10   5   7  1   
 11   6   8  1   
 12   6   9  2   
 13   7   9  1   
 14   7  10  2   
 15   8  11  am  
 16   8  31  1   
 17   9  12  1   
 18  11  13  2   
 19  11  14  1   
 20  12  14  1   
 21  12  15  1   
 22  12  32  1   
 23  14  33  1   
 24  14  34  1   
 25  15  16  ar  
 26  15  17  ar  
 27  16  18  1   
 28  16  19  ar  
 29  17  20  ar  
 30  17  35  1   
 31  18  21  1   
 32  19  22  ar  
 33  19  36  1   
 34  20  22  ar  
 35  20  23  1   
 36  21  37  1   
 37  21  38  1   
 38  21  39  1   
 39  22  24  1   
 40  23  25  1   
 41  24  26  1   
 42  25  40  1   
 43  25  41  1   
 44  25  42  1   
 45  26  43  1   
 46  26  44  1   
 47  26  45  1   
@<TRIPOS>SUBSTRUCTURE
  1 ****  15 GROUP 4 **** **** 0

# MOE 2024.06 (io_trps.svl 2023.06)
