@<TRIPOS>MOLECULE
2-(5-Propyl-[1,3,4]oxadiazol-2-ylsulfanyl)-N-(3-trifluoromethyl-phenyl)-acetamid
37 38 1 0 0 
SMALL
USER_CHARGES


@<TRIPOS>ATOM
  1 S        0.2700    -0.9200     1.3970 S.3   1 <1>  -0.2860 
  2 C        1.7160     0.1310     1.4760 C.2   1 <1>   0.5340 
  3 C        0.3180    -1.5930    -0.3350 C.3   1 <1>   0.1310 
  4 O        2.4720     0.2380     0.4370 O.3   1 <1>  -0.2800 
  5 N        2.1020     0.8140     2.4810 N.2   1 <1>  -0.3380 
  6 C       -0.8420    -2.5380    -0.6110 C.2   1 <1>   0.5690 
  7 C        3.3930     1.0530     0.8500 C.2   1 <1>   0.2980 
  8 N        3.2150     1.4260     2.0630 N.2   1 <1>  -0.3380 
  9 O       -0.8170    -3.1540    -1.6470 O.2   1 <1>  -0.5700 
 10 N       -1.8470    -2.6530     0.3130 N.am  1 <1>  -0.5470 
 11 C        4.5200     1.4640    -0.0800 C.3   1 <1>   0.0200 
 12 C       -3.0210    -3.4200     0.3200 C.ar  1 <1>   0.1170 
 13 C        5.4140     0.2710    -0.4500 C.3   1 <1>  -0.1600 
 14 C       -3.6160    -3.9110    -0.8380 C.ar  1 <1>  -0.1500 
 15 C       -3.6280    -3.6910     1.5400 C.ar  1 <1>  -0.1500 
 16 C        6.5620     0.6920    -1.3750 C.3   1 <1>  -0.2400 
 17 C       -4.7860    -4.6620    -0.7960 C.ar  1 <1>  -0.1430 
 18 C       -4.7890    -4.4370     1.6030 C.ar  1 <1>  -0.1500 
 19 C       -5.3650    -4.9220     0.4420 C.ar  1 <1>  -0.1500 
 20 C       -5.4160    -5.1970    -2.0920 C.3   1 <1>   1.1630 
 21 F       -5.2490    -4.3800    -3.1250 F     1 <1>  -0.3400 
 22 F       -4.9010    -6.3660    -2.4510 F     1 <1>  -0.3400 
 23 F       -6.7260    -5.3880    -1.9850 F     1 <1>  -0.3400 
 24 H        1.2510    -2.1130    -0.4500 H     1 <1>   0.0800 
 25 H        0.2800    -0.7560    -1.0070 H     1 <1>   0.0800 
 26 H       -1.6820    -2.1230     1.1710 H     1 <1>   0.3700 
 27 H        5.1100     2.2190     0.4080 H     1 <1>   0.0800 
 28 H        4.0940     1.8950    -0.9680 H     1 <1>   0.0800 
 29 H        4.8230    -0.4840    -0.9400 H     1 <1>   0.0800 
 30 H        5.8220    -0.1590     0.4490 H     1 <1>   0.0800 
 31 H       -3.1590    -3.7020    -1.7890 H     1 <1>   0.1500 
 32 H       -3.1890    -3.3220     2.4490 H     1 <1>   0.1500 
 33 H        6.1780     1.1050    -2.2920 H     1 <1>   0.0800 
 34 H        7.1710    -0.1610    -1.6150 H     1 <1>   0.0800 
 35 H        7.1830     1.4280    -0.8950 H     1 <1>   0.0800 
 36 H       -5.2470    -4.6430     2.5560 H     1 <1>   0.1500 
 37 H       -6.2690    -5.5050     0.5130 H     1 <1>   0.1500 
@<TRIPOS>BOND
  1   1   2  1   
  2   1   3  1   
  3   2   4  1   
  4   2   5  2   
  5   3   6  1   
  6   3  24  1   
  7   3  25  1   
  8   4   7  1   
  9   5   8  1   
 10   6   9  2   
 11   6  10  am  
 12   7   8  2   
 13   7  11  1   
 14  10  12  1   
 15  10  26  1   
 16  11  13  1   
 17  11  27  1   
 18  11  28  1   
 19  12  14  ar  
 20  12  15  ar  
 21  13  16  1   
 22  13  29  1   
 23  13  30  1   
 24  14  17  ar  
 25  14  31  1   
 26  15  18  ar  
 27  15  32  1   
 28  16  33  1   
 29  16  34  1   
 30  16  35  1   
 31  17  19  ar  
 32  17  20  1   
 33  18  19  ar  
 34  18  36  1   
 35  19  37  1   
 36  20  21  1   
 37  20  22  1   
 38  20  23  1   
@<TRIPOS>SUBSTRUCTURE
  1 ****   6 GROUP 4 **** **** 0

# MOE 2024.06 (io_trps.svl 2023.06)
