@<TRIPOS>MOLECULE
1-(Furan-2-carbonyl)-piperidine-4-carboxylic acid (2,3-dimethyl-phenyl)-amide
46 48 1 0 0 
SMALL
USER_CHARGES


@<TRIPOS>ATOM
  1 O        0.2530     1.2870    -1.2110 O.2   1 <1>  -0.5700 
  2 C       -0.2010     2.0980    -0.4220 C.2   1 <1>   0.7150 
  3 N        0.6840     2.8330     0.3510 N.am  1 <1>  -0.6600 
  4 C       -1.6360     2.2540    -0.2920 C.2   1 <1>   0.0550 
  5 C        2.1250     2.4640     0.4420 C.3   1 <1>   0.1400 
  6 C        0.3320     4.1370     0.9770 C.3   1 <1>   0.1400 
  7 O       -2.4240     2.2890    -1.3640 O.3   1 <1>  -0.2800 
  8 C       -2.4220     2.3800     0.8160 C.2   1 <1>  -0.1500 
  9 C        2.9840     3.5690    -0.1770 C.3   1 <1>  -0.1600 
 10 C        1.1940     5.2500     0.3750 C.3   1 <1>  -0.1600 
 11 C       -3.6700     2.4340    -0.9750 C.2   1 <1>  -0.0100 
 12 C       -3.7390     2.4990     0.3720 C.2   1 <1>  -0.1500 
 13 C        2.7010     4.9360     0.4720 C.3   1 <1>  -0.0190 
 14 C        3.5810     6.0300    -0.1380 C.2   1 <1>   0.5690 
 15 O        3.1130     6.7890    -0.9510 O.2   1 <1>  -0.5700 
 16 N        4.8850     6.0760     0.2750 N.am  1 <1>  -0.5470 
 17 C        5.9410     6.9390    -0.0690 C.ar  1 <1>   0.1170 
 18 C        7.2660     6.4920     0.0190 C.ar  1 <1>  -0.1430 
 19 C        5.6920     8.2470    -0.4680 C.ar  1 <1>  -0.1500 
 20 C        8.3120     7.3660    -0.2750 C.ar  1 <1>  -0.1430 
 21 C        7.5410     5.0440     0.4360 C.3   1 <1>  -0.0970 
 22 C        6.7280     9.1050    -0.7710 C.ar  1 <1>  -0.1500 
 23 C        8.0330     8.6650    -0.6720 C.ar  1 <1>  -0.1500 
 24 C        9.7770     6.9590    -0.1800 C.3   1 <1>  -0.0970 
 25 H        2.3160     1.5330    -0.0650 H     1 <1>   0.0800 
 26 H        2.3850     2.3320     1.4780 H     1 <1>   0.0800 
 27 H        0.4990     4.0740     2.0390 H     1 <1>   0.0800 
 28 H       -0.7030     4.3790     0.8120 H     1 <1>   0.0800 
 29 H       -2.1090     2.3810     1.8450 H     1 <1>   0.1500 
 30 H        2.7770     3.6190    -1.2330 H     1 <1>   0.0800 
 31 H        4.0220     3.3110    -0.0630 H     1 <1>   0.0800 
 32 H        0.9850     6.1760     0.8810 H     1 <1>   0.0800 
 33 H        0.9150     5.3780    -0.6580 H     1 <1>   0.0800 
 34 H       -4.4460     2.4810    -1.7190 H     1 <1>   0.1500 
 35 H       -4.6090     2.6130     0.9940 H     1 <1>   0.1500 
 36 H        2.9500     4.8730     1.5170 H     1 <1>   0.0800 
 37 H        5.1680     5.3250     0.8970 H     1 <1>   0.3700 
 38 H        4.6820     8.6060    -0.5400 H     1 <1>   0.1500 
 39 H        6.8690     4.3740    -0.0690 H     1 <1>   0.0800 
 40 H        7.4140     4.9420     1.4980 H     1 <1>   0.0800 
 41 H        8.5350     4.7280     0.1840 H     1 <1>   0.0800 
 42 H        6.5190    10.1140    -1.0810 H     1 <1>   0.1500 
 43 H        8.8300     9.3470    -0.9080 H     1 <1>   0.1500 
 44 H       10.0070     6.2320    -0.9380 H     1 <1>   0.0800 
 45 H        9.9840     6.5410     0.7890 H     1 <1>   0.0800 
 46 H       10.4250     7.8050    -0.3200 H     1 <1>   0.0800 
@<TRIPOS>BOND
  1   1   2  2   
  2   2   3  am  
  3   2   4  1   
  4   3   5  1   
  5   3   6  1   
  6   4   7  1   
  7   4   8  2   
  8   5   9  1   
  9   5  25  1   
 10   5  26  1   
 11   6  10  1   
 12   6  27  1   
 13   6  28  1   
 14   7  11  1   
 15   8  12  1   
 16   8  29  1   
 17   9  13  1   
 18   9  30  1   
 19   9  31  1   
 20  10  13  1   
 21  10  32  1   
 22  10  33  1   
 23  11  12  2   
 24  11  34  1   
 25  12  35  1   
 26  13  14  1   
 27  13  36  1   
 28  14  15  2   
 29  14  16  am  
 30  16  17  1   
 31  16  37  1   
 32  17  18  ar  
 33  17  19  ar  
 34  18  20  ar  
 35  18  21  1   
 36  19  22  ar  
 37  19  38  1   
 38  20  23  ar  
 39  20  24  1   
 40  21  39  1   
 41  21  40  1   
 42  21  41  1   
 43  22  23  ar  
 44  22  42  1   
 45  23  43  1   
 46  24  44  1   
 47  24  45  1   
 48  24  46  1   
@<TRIPOS>SUBSTRUCTURE
  1 ****  13 GROUP 4 **** **** 0

# MOE 2024.06 (io_trps.svl 2023.06)
