@<TRIPOS>MOLECULE
2,7-Dimethyl-5-oxo-4-thiophen-2-yl-1,4,5,6,7,8-hexahydro-quinoline-3-carboxylic
51 54 1 0 0 
SMALL
USER_CHARGES


@<TRIPOS>ATOM
  1 S       -1.0620    -1.4020     2.1510 S.3   1 <1>  -0.0800 
  2 C       -1.1910    -1.0850     0.4240 C.2   1 <1>  -0.1400 
  3 C       -1.0360     0.3140     2.5110 C.2   1 <1>  -0.1100 
  4 C       -1.2110     0.2420     0.1940 C.2   1 <1>  -0.1500 
  5 C       -1.2530    -2.2800    -0.5230 C.3   1 <1>   0.3760 
  6 C       -1.1230     1.0380     1.3800 C.2   1 <1>  -0.1500 
  7 C       -2.5200    -3.0880    -0.2400 C.2   1 <1>  -0.1240 
  8 C        0.0380    -3.0900    -0.3620 C.2   1 <1>  -0.1240 
  9 C       -2.4250    -4.3480     0.2530 C.2   1 <1>  -0.0380 
 10 C       -3.7600    -2.4430    -0.5100 C.2   1 <1>   0.4950 
 11 C       -0.0130    -4.3620     0.1190 C.2   1 <1>  -0.0380 
 12 C        1.2010    -2.3480    -0.7340 C.2   1 <1>   0.6160 
 13 N       -1.2100    -4.9510     0.4700 N.pl3 1 <1>  -0.6000 
 14 C       -3.6580    -5.1730     0.5910 C.3   1 <1>  -0.0220 
 15 O       -3.8760    -1.3870    -1.0870 O.2   1 <1>  -0.5700 
 16 C       -5.0320    -3.1380    -0.0580 C.3   1 <1>  -0.0990 
 17 C        1.1850    -5.2790     0.3080 C.3   1 <1>  -0.1020 
 18 O        1.2340    -1.7340    -1.7830 O.2   1 <1>  -0.5700 
 19 N        2.2700    -2.3190     0.1200 N.am  1 <1>  -0.5470 
 20 C       -4.9050    -4.6690    -0.1590 C.3   1 <1>  -0.0800 
 21 C        3.5490    -1.8210     0.0450 C.ar  1 <1>   0.4270 
 22 C       -6.1750    -5.3590     0.3580 C.3   1 <1>  -0.2400 
 23 N        4.2900    -2.1800     1.0820 N.ar  1 <1>  -0.6200 
 24 C        4.0290    -1.0270    -0.9960 C.ar  1 <1>  -0.1500 
 25 C        5.5380    -1.7400     1.0850 C.ar  1 <1>   0.1600 
 26 C        5.3300    -0.5800    -0.9780 C.ar  1 <1>  -0.1500 
 27 C        6.1080    -0.9500     0.0990 C.ar  1 <1>  -0.1430 
 28 C        7.5540    -0.4900     0.1840 C.3   1 <1>  -0.0970 
 29 H       -0.9580     0.6030     3.5430 H     1 <1>   0.1500 
 30 H       -1.2870     0.7020    -0.7770 H     1 <1>   0.1500 
 31 H       -1.3100    -1.9200    -1.5370 H     1 <1>   0.0800 
 32 H       -1.1290     2.1120     1.3210 H     1 <1>   0.1500 
 33 H       -1.1900    -5.8990     0.8620 H     1 <1>   0.4000 
 34 H       -3.8190    -5.1220     1.6540 H     1 <1>   0.0800 
 35 H       -3.4890    -6.2020     0.3270 H     1 <1>   0.0800 
 36 H       -5.8500    -2.8010    -0.6700 H     1 <1>   0.0800 
 37 H       -5.2310    -2.8460     0.9570 H     1 <1>   0.0800 
 38 H        0.9740    -6.2470    -0.1100 H     1 <1>   0.0800 
 39 H        1.3980    -5.3950     1.3560 H     1 <1>   0.0800 
 40 H        2.0620    -4.9040    -0.1850 H     1 <1>   0.0800 
 41 H        2.1120    -2.7800     1.0110 H     1 <1>   0.3700 
 42 H       -4.7860    -4.9200    -1.2010 H     1 <1>   0.0800 
 43 H       -6.3380    -5.1310     1.3970 H     1 <1>   0.0800 
 44 H       -6.0910    -6.4260     0.2500 H     1 <1>   0.0800 
 45 H       -7.0320    -5.0310    -0.2030 H     1 <1>   0.0800 
 46 H        3.3920    -0.7570    -1.8140 H     1 <1>   0.1500 
 47 H        6.1430    -2.0290     1.9270 H     1 <1>   0.1500 
 48 H        5.7190     0.0330    -1.7720 H     1 <1>   0.1500 
 49 H        8.0280    -0.8670     1.0720 H     1 <1>   0.0800 
 50 H        7.5940     0.5850     0.2030 H     1 <1>   0.0800 
 51 H        8.1000    -0.8430    -0.6730 H     1 <1>   0.0800 
@<TRIPOS>BOND
  1   1   2  1   
  2   1   3  1   
  3   2   4  2   
  4   2   5  1   
  5   3   6  2   
  6   3  29  1   
  7   4   6  1   
  8   4  30  1   
  9   5   7  1   
 10   5   8  1   
 11   5  31  1   
 12   6  32  1   
 13   7   9  2   
 14   7  10  1   
 15   8  11  2   
 16   8  12  1   
 17   9  13  1   
 18   9  14  1   
 19  10  15  2   
 20  10  16  1   
 21  11  13  1   
 22  11  17  1   
 23  12  18  2   
 24  12  19  am  
 25  13  33  1   
 26  14  20  1   
 27  14  34  1   
 28  14  35  1   
 29  16  20  1   
 30  16  36  1   
 31  16  37  1   
 32  17  38  1   
 33  17  39  1   
 34  17  40  1   
 35  19  21  1   
 36  19  41  1   
 37  20  22  1   
 38  20  42  1   
 39  21  23  ar  
 40  21  24  ar  
 41  22  43  1   
 42  22  44  1   
 43  22  45  1   
 44  23  25  ar  
 45  24  26  ar  
 46  24  46  1   
 47  25  27  ar  
 48  25  47  1   
 49  26  27  ar  
 50  26  48  1   
 51  27  28  1   
 52  28  49  1   
 53  28  50  1   
 54  28  51  1   
@<TRIPOS>SUBSTRUCTURE
  1 ****   8 GROUP 4 **** **** 0

# MOE 2024.06 (io_trps.svl 2023.06)
