@<TRIPOS>MOLECULE
1-[2-(4-Fluoro-phenyl)-ethyl]-5-oxo-pyrrolidine-3-carboxylic acid (5-methyl-[1,3
41 43 1 0 0 
SMALL
USER_CHARGES


@<TRIPOS>ATOM
  1 S       -0.1000    -0.6720     0.0570 S.3   1 <1>  -0.0800 
  2 C       -1.7470    -0.1870    -0.1800 C.2   1 <1>   0.4420 
  3 C        0.2680     0.9900     0.3580 C.2   1 <1>   0.1980 
  4 N       -1.9060     1.0780    -0.0310 N.2   1 <1>  -0.3380 
  5 N       -2.6460    -1.1880    -0.4850 N.am  1 <1>  -0.4940 
  6 N       -0.7500     1.7430     0.2760 N.2   1 <1>  -0.3380 
  7 C        1.7000     1.3590     0.6740 C.3   1 <1>  -0.0600 
  8 C       -3.9870    -1.0980    -0.7350 C.2   1 <1>   0.5690 
  9 O       -4.5880    -0.0560    -0.7570 O.2   1 <1>  -0.5700 
 10 C       -4.7430    -2.3880    -1.0240 C.3   1 <1>  -0.0190 
 11 C       -6.2750    -2.2260    -0.9970 C.3   1 <1>   0.1400 
 12 C       -4.4430    -3.5400    -0.0420 C.3   1 <1>  -0.0990 
 13 N       -6.7480    -3.5250    -0.4890 N.am  1 <1>  -0.6600 
 14 C       -5.7550    -4.2660     0.0450 C.2   1 <1>   0.5690 
 15 C       -8.1790    -3.9090    -0.5310 C.3   1 <1>   0.1400 
 16 O       -5.8690    -5.3580     0.5420 O.2   1 <1>  -0.5700 
 17 C       -8.9170    -3.3260     0.6750 C.3   1 <1>  -0.0170 
 18 C      -10.3830    -3.7250     0.6360 C.ar  1 <1>  -0.1440 
 19 C      -10.7720    -4.9650     1.1270 C.ar  1 <1>  -0.1500 
 20 C      -11.3320    -2.8580     0.1080 C.ar  1 <1>  -0.1500 
 21 C      -12.1040    -5.3440     1.0940 C.ar  1 <1>  -0.1500 
 22 C      -12.6670    -3.2250     0.0690 C.ar  1 <1>  -0.1500 
 23 C      -13.0270    -4.4640     0.5640 C.ar  1 <1>   0.1900 
 24 F      -14.2850    -4.8150     0.5280 F     1 <1>  -0.1900 
 25 H       -2.2410    -2.1180    -0.5240 H     1 <1>   0.3700 
 26 H        2.0230     0.8470     1.5620 H     1 <1>   0.0800 
 27 H        1.7740     2.4190     0.8360 H     1 <1>   0.0800 
 28 H        2.3380     1.0860    -0.1460 H     1 <1>   0.0800 
 29 H       -4.4790    -2.7060    -2.0170 H     1 <1>   0.0800 
 30 H       -6.6660    -2.0230    -1.9790 H     1 <1>   0.0800 
 31 H       -6.5800    -1.4500    -0.3140 H     1 <1>   0.0800 
 32 H       -4.1980    -3.1750     0.9380 H     1 <1>   0.0800 
 33 H       -3.6730    -4.1960    -0.4030 H     1 <1>   0.0800 
 34 H       -8.2580    -4.9830    -0.5120 H     1 <1>   0.0800 
 35 H       -8.6230    -3.5560    -1.4460 H     1 <1>   0.0800 
 36 H       -8.8310    -2.2550     0.6720 H     1 <1>   0.0800 
 37 H       -8.4680    -3.6990     1.5790 H     1 <1>   0.0800 
 38 H      -10.0390    -5.6400     1.5370 H     1 <1>   0.1500 
 39 H      -11.0370    -1.8960    -0.2740 H     1 <1>   0.1500 
 40 H      -12.4220    -6.2990     1.4690 H     1 <1>   0.1500 
 41 H      -13.4150    -2.5680    -0.3350 H     1 <1>   0.1500 
@<TRIPOS>BOND
  1   1   2  1   
  2   1   3  1   
  3   2   4  2   
  4   2   5  1   
  5   3   6  2   
  6   3   7  1   
  7   4   6  1   
  8   5   8  am  
  9   5  25  1   
 10   7  26  1   
 11   7  27  1   
 12   7  28  1   
 13   8   9  2   
 14   8  10  1   
 15  10  11  1   
 16  10  12  1   
 17  10  29  1   
 18  11  13  1   
 19  11  30  1   
 20  11  31  1   
 21  12  14  1   
 22  12  32  1   
 23  12  33  1   
 24  13  14  am  
 25  13  15  1   
 26  14  16  2   
 27  15  17  1   
 28  15  34  1   
 29  15  35  1   
 30  17  18  1   
 31  17  36  1   
 32  17  37  1   
 33  18  19  ar  
 34  18  20  ar  
 35  19  21  ar  
 36  19  38  1   
 37  20  22  ar  
 38  20  39  1   
 39  21  23  ar  
 40  21  40  1   
 41  22  23  ar  
 42  22  41  1   
 43  23  24  1   
@<TRIPOS>SUBSTRUCTURE
  1 ****  11 GROUP 4 **** **** 0

# MOE 2024.06 (io_trps.svl 2023.06)
