@<TRIPOS>MOLECULE
8-Amino-7-[3-(3,4-dimethyl-phenoxy)-2-hydroxy-propyl]-1,3-dimethyl-3,7-dihydro-p
51 53 1 0 0 
SMALL
USER_CHARGES


@<TRIPOS>ATOM
  1 O        6.4970    -0.1090     2.0670 O.2   1 <1>  -0.5750 
  2 C        6.4090     0.7760     1.2390 C.2   1 <1>   0.6860 
  3 N        5.6370     1.9020     1.5040 N.am  1 <1>  -0.4260 
  4 N        7.0580     0.6460     0.0200 N.am  1 <1>  -0.4420 
  5 C        5.4720     2.9000     0.5510 C.2   1 <1>   0.6990 
  6 C        4.9930     2.0330     2.8470 C.3   1 <1>   0.0520 
  7 C        6.9030     1.6570    -0.9090 C.2   1 <1>   0.4200 
  8 C        7.8910    -0.5580    -0.2660 C.3   1 <1>   0.0520 
  9 O        4.7850     3.8820     0.7880 O.2   1 <1>  -0.5750 
 10 C        6.1300     2.7460    -0.7120 C.2   1 <1>   0.2700 
 11 N        7.4730     1.7470    -2.1440 N.pl3 1 <1>  -0.7040 
 12 N        6.2110     3.5120    -1.8950 N.pl3 1 <1>  -0.7670 
 13 C        7.0750     2.8880    -2.6850 C.cat 1 <1>   1.0690 
 14 C        5.4640     4.7870    -2.1480 C.3   1 <1>   0.3480 
 15 N        7.4950     3.3340    -3.8440 N.pl3 1 <1>  -0.8400 
 16 C        6.3400     6.0620    -2.1830 C.3   1 <1>   0.1930 
 17 O        7.1670     6.0460    -3.3130 O.3   1 <1>  -0.6840 
 18 C        7.1750     6.2550    -0.9020 C.3   1 <1>   0.1120 
 19 O        8.3440     5.4490    -0.9430 O.3   1 <1>  -0.3680 
 20 C        8.6730     4.5610     0.0270 C.ar  1 <1>   0.0750 
 21 C        9.5940     3.5860    -0.3190 C.ar  1 <1>  -0.1570 
 22 C        8.1320     4.5600     1.3070 C.ar  1 <1>  -0.1570 
 23 C        9.9390     2.5800     0.5690 C.ar  1 <1>  -0.1510 
 24 C        8.4690     3.5560     2.1940 C.ar  1 <1>  -0.1570 
 25 C        9.3590     2.5560     1.8330 C.ar  1 <1>  -0.1510 
 26 C       10.9690     1.5400     0.1490 C.3   1 <1>  -0.1040 
 27 C        9.6910     1.4700     2.8460 C.3   1 <1>  -0.1040 
 28 H        4.0910     1.4480     2.8720 H     1 <1>   0.0720 
 29 H        4.7540     3.0590     3.0650 H     1 <1>   0.0720 
 30 H        5.6610     1.6750     3.6120 H     1 <1>   0.0720 
 31 H        8.6900    -0.3160    -0.9420 H     1 <1>   0.0720 
 32 H        7.2750    -1.3290    -0.6950 H     1 <1>   0.0720 
 33 H        8.3260    -0.9330     0.6450 H     1 <1>   0.0720 
 34 H        8.1470     1.1020    -2.5370 H     1 <1>   0.4450 
 35 H        4.7120     4.9160    -1.3900 H     1 <1>   0.0720 
 36 H        4.9390     4.7060    -3.0850 H     1 <1>   0.0720 
 37 H        7.3440     4.3350    -4.0390 H     1 <1>   0.4450 
 38 H        8.1970     2.8830    -4.4220 H     1 <1>   0.4450 
 39 H        5.6830     6.9090    -2.2870 H     1 <1>   0.0720 
 40 H        7.8390     6.7600    -3.2320 H     1 <1>   0.3940 
 41 H        6.5680     6.0120    -0.0520 H     1 <1>   0.0720 
 42 H        7.4930     7.2780    -0.8110 H     1 <1>   0.0720 
 43 H       10.0450     3.6280    -1.2920 H     1 <1>   0.1430 
 44 H        7.4590     5.3260     1.6440 H     1 <1>   0.1430 
 45 H        8.0380     3.5600     3.1810 H     1 <1>   0.1430 
 46 H       11.1940     1.6170    -0.8990 H     1 <1>   0.0720 
 47 H       10.6120     0.5480     0.3500 H     1 <1>   0.0720 
 48 H       11.8790     1.6960     0.7010 H     1 <1>   0.0720 
 49 H        9.3650     0.5120     2.4850 H     1 <1>   0.0720 
 50 H        9.2050     1.6550     3.7870 H     1 <1>   0.0720 
 51 H       10.7520     1.4370     3.0190 H     1 <1>   0.0720 
@<TRIPOS>BOND
  1   1   2  2   
  2   2   3  am  
  3   2   4  am  
  4   3   5  am  
  5   3   6  1   
  6   4   7  1   
  7   4   8  1   
  8   5   9  2   
  9   5  10  1   
 10   6  28  1   
 11   6  29  1   
 12   6  30  1   
 13   7  10  2   
 14   7  11  1   
 15   8  31  1   
 16   8  32  1   
 17   8  33  1   
 18  10  12  1   
 19  11  13  ar  
 20  11  34  1   
 21  12  13  ar  
 22  12  14  1   
 23  13  15  ar  
 24  14  16  1   
 25  14  35  1   
 26  14  36  1   
 27  15  37  1   
 28  15  38  1   
 29  16  17  1   
 30  16  18  1   
 31  16  39  1   
 32  17  40  1   
 33  18  19  1   
 34  18  41  1   
 35  18  42  1   
 36  19  20  1   
 37  20  21  ar  
 38  20  22  ar  
 39  21  23  ar  
 40  21  43  1   
 41  22  24  ar  
 42  22  44  1   
 43  23  25  ar  
 44  23  26  1   
 45  24  25  ar  
 46  24  45  1   
 47  25  27  1   
 48  26  46  1   
 49  26  47  1   
 50  26  48  1   
 51  27  49  1   
 52  27  50  1   
 53  27  51  1   
@<TRIPOS>SUBSTRUCTURE
  1 ****  10 GROUP 4 **** **** 0

# MOE 2024.06 (io_trps.svl 2023.06)
