@<TRIPOS>MOLECULE
1,3-Diethyl-2-oxo-2,3-dihydro-1H-benzoimidazole-5-sulfonic acid isopropylamide
42 43 1 0 0 
SMALL
USER_CHARGES


@<TRIPOS>ATOM
  1 S       -0.4060     0.6250     0.3760 S.o2  1 <1>   1.4470 
  2 O        0.1360     0.5620     1.7140 O.2   1 <1>  -0.6500 
  3 O       -0.8110     1.8900    -0.1920 O.2   1 <1>  -0.6500 
  4 N        0.7150     0.0280    -0.7270 N.am  1 <1>  -0.9140 
  5 C       -1.7680    -0.5630     0.2370 C.ar  1 <1>  -0.0090 
  6 C        2.1270     0.3140    -0.5500 C.3   1 <1>   0.2760 
  7 C       -3.0600    -0.1400    -0.0530 C.ar  1 <1>  -0.1500 
  8 C       -1.5420    -1.9300     0.4280 C.ar  1 <1>  -0.1500 
  9 C        2.7400    -0.5920     0.5140 C.3   1 <1>  -0.2400 
 10 C        2.3980     1.7950    -0.2930 C.3   1 <1>  -0.2400 
 11 C       -4.0870    -1.0670    -0.1490 C.ar  1 <1>   0.1170 
 12 C       -2.5630    -2.8610     0.3320 C.ar  1 <1>  -0.1500 
 13 N       -5.4420    -0.9130    -0.4190 N.am  1 <1>  -0.4770 
 14 C       -3.8430    -2.4160     0.0400 C.ar  1 <1>   0.1170 
 15 C       -6.0060    -2.1590    -0.3950 C.2   1 <1>   0.6900 
 16 C       -6.1580     0.3480    -0.6880 C.3   1 <1>   0.1400 
 17 N       -5.0460    -3.0930    -0.1190 N.am  1 <1>  -0.4770 
 18 O       -7.1890    -2.4010    -0.5890 O.2   1 <1>  -0.5700 
 19 C       -6.4340     1.0720     0.6280 C.3   1 <1>  -0.2400 
 20 C       -5.2750    -4.5440     0.0170 C.3   1 <1>   0.1400 
 21 C       -4.8580    -5.2520    -1.2700 C.3   1 <1>  -0.2400 
 22 H        0.4410     0.5000    -1.5860 H     1 <1>   0.4200 
 23 H        2.6090     0.0600    -1.4810 H     1 <1>   0.0800 
 24 H       -3.2720     0.9040    -0.2030 H     1 <1>   0.1500 
 25 H       -0.5420    -2.2610     0.6570 H     1 <1>   0.1500 
 26 H        2.4180    -0.3220     1.5020 H     1 <1>   0.0800 
 27 H        3.8100    -0.5040     0.4850 H     1 <1>   0.0800 
 28 H        2.4810    -1.6180     0.3220 H     1 <1>   0.0800 
 29 H        2.0520     2.0950     0.6800 H     1 <1>   0.0800 
 30 H        1.9260     2.4040    -1.0430 H     1 <1>   0.0800 
 31 H        3.4570     1.9770    -0.3310 H     1 <1>   0.0800 
 32 H       -2.3770    -3.9090     0.4810 H     1 <1>   0.1500 
 33 H       -7.0880     0.1280    -1.1860 H     1 <1>   0.0800 
 34 H       -5.5620     0.9640    -1.3380 H     1 <1>   0.0800 
 35 H       -7.0420     0.4550     1.2660 H     1 <1>   0.0800 
 36 H       -6.9630     1.9870     0.4340 H     1 <1>   0.0800 
 37 H       -5.5130     1.3080     1.1310 H     1 <1>   0.0800 
 38 H       -6.3210    -4.7200     0.2090 H     1 <1>   0.0800 
 39 H       -4.7090    -4.9160     0.8520 H     1 <1>   0.0800 
 40 H       -5.4370    -4.8810    -2.0970 H     1 <1>   0.0800 
 41 H       -5.0340    -6.3080    -1.1770 H     1 <1>   0.0800 
 42 H       -3.8130    -5.0940    -1.4670 H     1 <1>   0.0800 
@<TRIPOS>BOND
  1   1   2  2   
  2   1   3  2   
  3   1   4  am  
  4   1   5  1   
  5   4   6  1   
  6   4  22  1   
  7   5   7  ar  
  8   5   8  ar  
  9   6   9  1   
 10   6  10  1   
 11   6  23  1   
 12   7  11  ar  
 13   7  24  1   
 14   8  12  ar  
 15   8  25  1   
 16   9  26  1   
 17   9  27  1   
 18   9  28  1   
 19  10  29  1   
 20  10  30  1   
 21  10  31  1   
 22  11  13  1   
 23  11  14  ar  
 24  12  14  ar  
 25  12  32  1   
 26  13  15  am  
 27  13  16  1   
 28  14  17  1   
 29  15  17  am  
 30  15  18  2   
 31  16  19  1   
 32  16  33  1   
 33  16  34  1   
 34  17  20  1   
 35  19  35  1   
 36  19  36  1   
 37  19  37  1   
 38  20  21  1   
 39  20  38  1   
 40  20  39  1   
 41  21  40  1   
 42  21  41  1   
 43  21  42  1   
@<TRIPOS>SUBSTRUCTURE
  1 ****   7 GROUP 4 **** **** 0

# MOE 2024.06 (io_trps.svl 2023.06)
