@<TRIPOS>MOLECULE
5-Oxo-1-phenyl-pyrrolidine-3-carboxylic acid (2-methoxy-1-methyl-ethyl)-amide
40 41 1 0 0 
SMALL
USER_CHARGES


@<TRIPOS>ATOM
  1 O        0.1600    -0.0370     0.2010 O.2   1 <1>  -0.5700 
  2 C        0.0980     1.1660     0.1350 C.2   1 <1>   0.5690 
  3 N       -1.0230     1.9280    -0.0380 N.am  1 <1>  -0.4770 
  4 C        1.3270     2.0220     0.2650 C.3   1 <1>  -0.0990 
  5 C       -2.3630     1.5080    -0.1610 C.ar  1 <1>   0.1170 
  6 C       -0.6700     3.3640    -0.0500 C.3   1 <1>   0.1400 
  7 C        0.7450     3.4140     0.5400 C.3   1 <1>  -0.0190 
  8 C       -2.8380     0.4050     0.5430 C.ar  1 <1>  -0.1500 
  9 C       -3.2540     2.1930    -0.9830 C.ar  1 <1>  -0.1500 
 10 C        1.5910     4.5440    -0.0210 C.2   1 <1>   0.5690 
 11 C       -4.1580     0.0040     0.4370 C.ar  1 <1>  -0.1500 
 12 C       -4.5750     1.7970    -1.0900 C.ar  1 <1>  -0.1500 
 13 O        1.5240     4.8070    -1.1960 O.2   1 <1>  -0.5700 
 14 N        2.4140     5.2210     0.8180 N.am  1 <1>  -0.7300 
 15 C       -5.0300     0.7010    -0.3790 C.ar  1 <1>  -0.1500 
 16 C        3.2350     6.3870     0.4280 C.3   1 <1>   0.2200 
 17 C        4.4910     5.9160    -0.3260 C.3   1 <1>   0.1200 
 18 C        3.5590     7.1610     1.7060 C.3   1 <1>  -0.2400 
 19 O        5.3220     7.0050    -0.5980 O.3   1 <1>  -0.5600 
 20 C        6.4470     6.6820    -1.3480 C.3   1 <1>   0.0400 
 21 H        1.8630     1.9960    -0.6670 H     1 <1>   0.0800 
 22 H        1.9570     1.6790     1.0650 H     1 <1>   0.0800 
 23 H       -1.3650     3.9350     0.5420 H     1 <1>   0.0800 
 24 H       -0.6840     3.7150    -1.0680 H     1 <1>   0.0800 
 25 H        0.6460     3.5430     1.6020 H     1 <1>   0.0800 
 26 H       -2.1700    -0.1460     1.1800 H     1 <1>   0.1500 
 27 H       -2.9170     3.0390    -1.5510 H     1 <1>   0.1500 
 28 H       -4.5040    -0.8530     0.9900 H     1 <1>   0.1500 
 29 H       -5.2500     2.3390    -1.7300 H     1 <1>   0.1500 
 30 H        2.4800     4.9660     1.8030 H     1 <1>   0.3700 
 31 H       -6.0570     0.3900    -0.4620 H     1 <1>   0.1500 
 32 H        2.6570     7.0100    -0.2350 H     1 <1>   0.0800 
 33 H        4.2020     5.4650    -1.2600 H     1 <1>   0.0800 
 34 H        5.0420     5.2120     0.2710 H     1 <1>   0.0800 
 35 H        4.1680     6.5700     2.3660 H     1 <1>   0.0800 
 36 H        2.6550     7.4550     2.2060 H     1 <1>   0.0800 
 37 H        4.1050     8.0530     1.4560 H     1 <1>   0.0800 
 38 H        7.0180     7.5810    -1.5000 H     1 <1>   0.0800 
 39 H        6.1370     6.2850    -2.3000 H     1 <1>   0.0800 
 40 H        7.0400     5.9620    -0.8100 H     1 <1>   0.0800 
@<TRIPOS>BOND
  1   1   2  2   
  2   2   3  am  
  3   2   4  1   
  4   3   5  1   
  5   3   6  1   
  6   4   7  1   
  7   4  21  1   
  8   4  22  1   
  9   5   8  ar  
 10   5   9  ar  
 11   6   7  1   
 12   6  23  1   
 13   6  24  1   
 14   7  10  1   
 15   7  25  1   
 16   8  11  ar  
 17   8  26  1   
 18   9  12  ar  
 19   9  27  1   
 20  10  13  2   
 21  10  14  am  
 22  11  15  ar  
 23  11  28  1   
 24  12  15  ar  
 25  12  29  1   
 26  14  16  1   
 27  14  30  1   
 28  15  31  1   
 29  16  17  1   
 30  16  18  1   
 31  16  32  1   
 32  17  19  1   
 33  17  33  1   
 34  17  34  1   
 35  18  35  1   
 36  18  36  1   
 37  18  37  1   
 38  19  20  1   
 39  20  38  1   
 40  20  39  1   
 41  20  40  1   
@<TRIPOS>SUBSTRUCTURE
  1 ****   7 GROUP 4 **** **** 0

# MOE 2024.06 (io_trps.svl 2023.06)
