@<TRIPOS>MOLECULE
4-Methyl-3-(piperidine-1-carbonyl)-N-pyridin-2-ylmethyl-benzenesulfonamide
49 51 1 0 0 
SMALL
USER_CHARGES


@<TRIPOS>ATOM
  1 S       -0.4500     0.2300    -1.5610 S.o2  1 <1>   1.4470 
  2 O        0.6040    -0.5300    -2.1900 O.2   1 <1>  -0.6500 
  3 O       -1.2140     1.1820    -2.3350 O.2   1 <1>  -0.6500 
  4 N        0.3190     1.1090    -0.3680 N.am  1 <1>  -0.9140 
  5 C       -1.5700    -0.8600    -0.6400 C.ar  1 <1>  -0.0090 
  6 C        0.9910     2.2720    -0.9200 C.3   1 <1>   0.3390 
  7 C       -2.6830    -0.3480     0.0080 C.ar  1 <1>  -0.1500 
  8 C       -1.3430    -2.2270    -0.5540 C.ar  1 <1>  -0.1500 
  9 C        2.0660     2.7440     0.0530 C.ar  1 <1>   0.1660 
 10 C       -3.5750    -1.1490     0.7180 C.ar  1 <1>   0.0860 
 11 C       -2.2040    -3.0490     0.1500 C.ar  1 <1>  -0.1500 
 12 N        3.0510     1.8880     0.3020 N.ar  1 <1>  -0.6200 
 13 C        1.9720     4.0040     0.6260 C.ar  1 <1>  -0.1500 
 14 C       -3.3160    -2.5210     0.7840 C.ar  1 <1>  -0.1430 
 15 C       -4.7370    -0.5490     1.3440 C.2   1 <1>   0.5440 
 16 C        3.9780     2.3110     1.1480 C.ar  1 <1>   0.1600 
 17 C        2.9450     4.4290     1.5050 C.ar  1 <1>  -0.1500 
 18 C       -4.2520    -3.4430     1.5530 C.3   1 <1>  -0.0970 
 19 O       -4.7260    -0.3460     2.5430 O.2   1 <1>  -0.5700 
 20 N       -5.8530    -0.2080     0.6060 N.am  1 <1>  -0.6600 
 21 C        3.9730     3.5490     1.7660 C.ar  1 <1>  -0.1500 
 22 C       -5.9960    -0.4700    -0.8540 C.3   1 <1>   0.1400 
 23 C       -7.0670     0.3810     1.2380 C.3   1 <1>   0.1400 
 24 C       -7.1810    -1.4120    -1.0930 C.3   1 <1>  -0.1600 
 25 C       -8.2630    -0.5520     1.0190 C.3   1 <1>  -0.1600 
 26 C       -8.4730    -0.8670    -0.4690 C.3   1 <1>  -0.1600 
 27 H        1.0950     0.5190    -0.0590 H     1 <1>   0.4200 
 28 H        0.2730     3.0510    -1.1080 H     1 <1>   0.0800 
 29 H        1.4740     2.0190    -1.8500 H     1 <1>   0.0800 
 30 H       -2.8740     0.7120    -0.0370 H     1 <1>   0.1500 
 31 H       -0.4830    -2.6560    -1.0430 H     1 <1>   0.1500 
 32 H       -2.0000    -4.1050     0.2010 H     1 <1>   0.1500 
 33 H        1.1450     4.6500     0.3910 H     1 <1>   0.1500 
 34 H        4.7860     1.6320     1.3610 H     1 <1>   0.1500 
 35 H        2.9040     5.4010     1.9670 H     1 <1>   0.1500 
 36 H       -3.9360    -4.4680     1.4850 H     1 <1>   0.0800 
 37 H       -4.2700    -3.1610     2.5920 H     1 <1>   0.0800 
 38 H       -5.2510    -3.3680     1.1620 H     1 <1>   0.0800 
 39 H        4.7650     3.8180     2.4420 H     1 <1>   0.1500 
 40 H       -5.1040    -0.9090    -1.2630 H     1 <1>   0.0800 
 41 H       -6.1680     0.4650    -1.3600 H     1 <1>   0.0800 
 42 H       -7.2630     1.3400     0.7920 H     1 <1>   0.0800 
 43 H       -6.9160     0.5310     2.2940 H     1 <1>   0.0800 
 44 H       -6.9500    -2.3730    -0.6680 H     1 <1>   0.0800 
 45 H       -7.3190    -1.5460    -2.1510 H     1 <1>   0.0800 
 46 H       -9.1480    -0.0940     1.4220 H     1 <1>   0.0800 
 47 H       -8.0900    -1.4640     1.5640 H     1 <1>   0.0800 
 48 H       -9.2650    -1.5880    -0.5800 H     1 <1>   0.0800 
 49 H       -8.7670     0.0320    -0.9840 H     1 <1>   0.0800 
@<TRIPOS>BOND
  1   1   2  2   
  2   1   3  2   
  3   1   4  am  
  4   1   5  1   
  5   4   6  1   
  6   4  27  1   
  7   5   7  ar  
  8   5   8  ar  
  9   6   9  1   
 10   6  28  1   
 11   6  29  1   
 12   7  10  ar  
 13   7  30  1   
 14   8  11  ar  
 15   8  31  1   
 16   9  12  ar  
 17   9  13  ar  
 18  10  14  ar  
 19  10  15  1   
 20  11  14  ar  
 21  11  32  1   
 22  12  16  ar  
 23  13  17  ar  
 24  13  33  1   
 25  14  18  1   
 26  15  19  2   
 27  15  20  am  
 28  16  21  ar  
 29  16  34  1   
 30  17  21  ar  
 31  17  35  1   
 32  18  36  1   
 33  18  37  1   
 34  18  38  1   
 35  20  22  1   
 36  20  23  1   
 37  21  39  1   
 38  22  24  1   
 39  22  40  1   
 40  22  41  1   
 41  23  25  1   
 42  23  42  1   
 43  23  43  1   
 44  24  26  1   
 45  24  44  1   
 46  24  45  1   
 47  25  26  1   
 48  25  46  1   
 49  25  47  1   
 50  26  48  1   
 51  26  49  1   
@<TRIPOS>SUBSTRUCTURE
  1 ****   7 GROUP 4 **** **** 0

# MOE 2024.06 (io_trps.svl 2023.06)
