@<TRIPOS>MOLECULE
2-Methyl-furan-3-carboxylic acid [3-(3,4-dimethoxy-phenyl)-[1,2,4]oxadiazol-5-yl
51 53 1 0 0 
SMALL
USER_CHARGES


@<TRIPOS>ATOM
  1 O        0.1180     0.3580    -1.1800 O.2   1 <1>  -0.5700 
  2 C        0.4790     1.4600    -0.8090 C.2   1 <1>   0.7160 
  3 N        1.7410     1.5800    -0.2760 N.am  1 <1>  -0.6600 
  4 C       -0.4060     2.5900    -0.9550 C.2   1 <1>  -0.0860 
  5 C        2.0480     2.2600     1.0150 C.3   1 <1>   0.2200 
  6 C        2.8020     0.6380    -0.7510 C.3   1 <1>   0.3200 
  7 C       -1.7220     2.7130    -0.6300 C.2   1 <1>  -0.0400 
  8 C       -0.0730     3.8410    -1.5180 C.2   1 <1>  -0.1500 
  9 C        0.9190     2.0790     2.0310 C.3   1 <1>  -0.2400 
 10 C        2.3730     3.7360     0.7960 C.3   1 <1>  -0.2400 
 11 C        4.1030     1.3640    -1.0590 C.2   1 <1>   0.2980 
 12 O       -2.1760     3.9050    -0.9300 O.3   1 <1>  -0.2800 
 13 C       -2.6780     1.7170    -0.0060 C.3   1 <1>  -0.0600 
 14 C       -1.1910     4.5910    -1.4680 C.2   1 <1>  -0.0100 
 15 O        4.1360     2.1720    -2.0850 O.3   1 <1>  -0.0190 
 16 N        5.1860     1.2730    -0.4010 N.2   1 <1>  -0.5650 
 17 N        5.3440     2.6410    -2.0780 N.2   1 <1>  -0.4100 
 18 C        5.9700     2.1130    -1.0850 C.2   1 <1>   0.4620 
 19 C        7.3510     2.3760    -0.7180 C.ar  1 <1>   0.0540 
 20 C        7.9580     1.7470     0.3690 C.ar  1 <1>  -0.1500 
 21 C        8.1350     3.2730    -1.4440 C.ar  1 <1>  -0.1500 
 22 C        9.2730     1.9870     0.7270 C.ar  1 <1>   0.0820 
 23 C        9.4470     3.5380    -1.0990 C.ar  1 <1>  -0.1500 
 24 O        9.7130     1.2800     1.8060 O.3   1 <1>  -0.3630 
 25 C       10.0370     2.9090    -0.0060 C.ar  1 <1>   0.0820 
 26 C       11.0460     0.8240     1.8800 C.3   1 <1>   0.0400 
 27 O       11.3190     3.1850     0.3670 O.3   1 <1>  -0.3630 
 28 C       12.0680     4.2240    -0.2250 C.3   1 <1>   0.0400 
 29 H        2.9270     1.7980     1.4380 H     1 <1>   0.0800 
 30 H        2.4830     0.1300    -1.6440 H     1 <1>   0.0800 
 31 H        2.9800    -0.1040     0.0070 H     1 <1>   0.0800 
 32 H        0.8960     4.1020    -1.9030 H     1 <1>   0.1500 
 33 H        0.0390     2.6250     1.7420 H     1 <1>   0.0800 
 34 H        1.2350     2.4500     2.9890 H     1 <1>   0.0800 
 35 H        0.6760     1.0370     2.1380 H     1 <1>   0.0800 
 36 H        1.4900     4.2960     0.5540 H     1 <1>   0.0800 
 37 H        3.1020     3.8540     0.0150 H     1 <1>   0.0800 
 38 H        2.7830     4.1490     1.7000 H     1 <1>   0.0800 
 39 H       -2.1800     0.7860     0.1940 H     1 <1>   0.0800 
 40 H       -3.4970     1.5350    -0.6780 H     1 <1>   0.0800 
 41 H       -3.0640     2.1130     0.9150 H     1 <1>   0.0800 
 42 H       -1.3770     5.6010    -1.7890 H     1 <1>   0.1500 
 43 H        7.3950     1.0450     0.9560 H     1 <1>   0.1500 
 44 H        7.7070     3.7760    -2.2940 H     1 <1>   0.1500 
 45 H        9.9910     4.2410    -1.6990 H     1 <1>   0.1500 
 46 H       11.0810     0.0010     2.5700 H     1 <1>   0.0800 
 47 H       11.6670     1.6240     2.2390 H     1 <1>   0.0800 
 48 H       11.3640     0.5010     0.9040 H     1 <1>   0.0800 
 49 H       13.0110     4.2880     0.2870 H     1 <1>   0.0800 
 50 H       11.5300     5.1490    -0.1150 H     1 <1>   0.0800 
 51 H       12.2320     3.9910    -1.2620 H     1 <1>   0.0800 
@<TRIPOS>BOND
  1   1   2  2   
  2   2   3  am  
  3   2   4  1   
  4   3   5  1   
  5   3   6  1   
  6   4   7  2   
  7   4   8  1   
  8   5   9  1   
  9   5  10  1   
 10   5  29  1   
 11   6  11  1   
 12   6  30  1   
 13   6  31  1   
 14   7  12  1   
 15   7  13  1   
 16   8  14  2   
 17   8  32  1   
 18   9  33  1   
 19   9  34  1   
 20   9  35  1   
 21  10  36  1   
 22  10  37  1   
 23  10  38  1   
 24  11  15  1   
 25  11  16  2   
 26  12  14  1   
 27  13  39  1   
 28  13  40  1   
 29  13  41  1   
 30  14  42  1   
 31  15  17  1   
 32  16  18  1   
 33  17  18  2   
 34  18  19  1   
 35  19  20  ar  
 36  19  21  ar  
 37  20  22  ar  
 38  20  43  1   
 39  21  23  ar  
 40  21  44  1   
 41  22  24  1   
 42  22  25  ar  
 43  23  25  ar  
 44  23  45  1   
 45  24  26  1   
 46  25  27  1   
 47  26  46  1   
 48  26  47  1   
 49  26  48  1   
 50  27  28  1   
 51  28  49  1   
 52  28  50  1   
 53  28  51  1   
@<TRIPOS>SUBSTRUCTURE
  1 ****  11 GROUP 4 **** **** 0

# MOE 2024.06 (io_trps.svl 2023.06)
