@<TRIPOS>MOLECULE
2,4,5,7-Tetramethyl-4H-thiazolo[5,4-b]indole
30 32 1 0 0 
SMALL
USER_CHARGES


@<TRIPOS>ATOM
  1 S        0.1380     0.0670    -0.0250 S.3   1 <1>  -0.0800 
  2 C       -1.5990     0.1520    -0.0310 C.2   1 <1>  -0.1120 
  3 C        0.1550     1.8400    -0.0050 C.2   1 <1>   0.1980 
  4 N       -2.6300    -0.7290    -0.0450 N.pl3 1 <1>   0.0480 
  5 C       -1.9930     1.4330    -0.0180 C.2   1 <1>   0.2270 
  6 N       -0.9920     2.3970    -0.0030 N.2   1 <1>  -0.5650 
  7 C        1.5100     2.5060     0.0080 C.3   1 <1>  -0.0600 
  8 C       -3.7860     0.0510    -0.0400 C.ar  1 <1>  -0.1520 
  9 C       -2.4860    -2.1950    -0.0600 C.3   1 <1>   0.0160 
 10 C       -3.4060     1.4040    -0.0240 C.ar  1 <1>   0.0000 
 11 C       -5.1510    -0.2820    -0.0490 C.ar  1 <1>  -0.1440 
 12 C       -4.3660     2.4160    -0.0160 C.ar  1 <1>  -0.1500 
 13 C       -6.0810     0.7380    -0.0420 C.ar  1 <1>  -0.1500 
 14 C       -5.6300    -1.7240    -0.0670 C.3   1 <1>  -0.0970 
 15 C       -5.7010     2.0840    -0.0250 C.ar  1 <1>  -0.1430 
 16 C       -6.7730     3.1570    -0.0180 C.3   1 <1>  -0.0970 
 17 H        2.0620     2.2250    -0.8700 H     1 <1>   0.0800 
 18 H        2.0550     2.2060     0.8830 H     1 <1>   0.0800 
 19 H        1.3880     3.5740     0.0190 H     1 <1>   0.0800 
 20 H       -1.4440    -2.4550    -0.0590 H     1 <1>   0.0800 
 21 H       -2.9470    -2.5880    -0.9470 H     1 <1>   0.0800 
 22 H       -2.9540    -2.6080     0.8140 H     1 <1>   0.0800 
 23 H       -4.0310     3.4370    -0.0040 H     1 <1>   0.1500 
 24 H       -7.1310     0.5080    -0.0480 H     1 <1>   0.1500 
 25 H       -5.2710    -2.2200    -0.9500 H     1 <1>   0.0800 
 26 H       -6.7040    -1.7700    -0.0720 H     1 <1>   0.0800 
 27 H       -5.2780    -2.2390     0.8070 H     1 <1>   0.0800 
 28 H       -6.3320     4.1380    -0.0050 H     1 <1>   0.0800 
 29 H       -7.3920     3.0480     0.8540 H     1 <1>   0.0800 
 30 H       -7.3860     3.0680    -0.8960 H     1 <1>   0.0800 
@<TRIPOS>BOND
  1   1   2  1   
  2   1   3  1   
  3   2   4  1   
  4   2   5  2   
  5   3   6  2   
  6   3   7  1   
  7   4   8  1   
  8   4   9  1   
  9   5   6  1   
 10   5  10  1   
 11   7  17  1   
 12   7  18  1   
 13   7  19  1   
 14   8  10  ar  
 15   8  11  ar  
 16   9  20  1   
 17   9  21  1   
 18   9  22  1   
 19  10  12  ar  
 20  11  13  ar  
 21  11  14  1   
 22  12  15  ar  
 23  12  23  1   
 24  13  15  ar  
 25  13  24  1   
 26  14  25  1   
 27  14  26  1   
 28  14  27  1   
 29  15  16  1   
 30  16  28  1   
 31  16  29  1   
 32  16  30  1   
@<TRIPOS>SUBSTRUCTURE
  1 ****  10 GROUP 4 **** **** 0

# MOE 2024.06 (io_trps.svl 2023.06)
