@<TRIPOS>MOLECULE
6-Methyl-5-(6-oxo-5,7-dipropyl-1,3-diaza-tricyclo[3.3.1.1*3,7*]dec-2-yl)-1H-pyri
55 58 1 0 0 
SMALL
USER_CHARGES


@<TRIPOS>ATOM
  1 O       -0.6680     0.0950    -1.5500 O.2   1 <1>  -0.5700 
  2 C       -1.6400     0.7520    -1.2680 C.2   1 <1>   0.6900 
  3 N       -1.7910     2.0140    -1.7250 N.am  1 <1>  -0.4900 
  4 N       -2.6280     0.2480    -0.4810 N.am  1 <1>  -0.5390 
  5 C       -2.8780     2.7790    -1.4380 C.2   1 <1>   0.6160 
  6 C       -3.7530     0.9680    -0.1210 C.2   1 <1>  -0.0290 
  7 O       -2.9010     3.8840    -1.9290 O.2   1 <1>  -0.5700 
  8 C       -3.9130     2.2350    -0.6060 C.2   1 <1>  -0.1240 
  9 C       -4.6770     0.2010     0.8180 C.3   1 <1>  -0.1020 
 10 C       -5.1620     3.0410    -0.2480 C.3   1 <1>   0.8310 
 11 N       -5.9670     3.7590    -1.2770 N.4   1 <1>  -0.9590 
 12 N       -5.0020     3.9510     0.8800 N.3   1 <1>  -0.8100 
 13 C       -5.4450     5.1140    -1.6870 C.3   1 <1>   0.3430 
 14 C       -7.3430     3.9610    -0.7070 C.3   1 <1>   0.3430 
 15 C       -4.3630     5.2400     0.5420 C.3   1 <1>   0.1100 
 16 C       -6.2980     4.1870     1.5470 C.3   1 <1>   0.1100 
 17 C       -5.2330     6.0120    -0.4660 C.3   1 <1>   0.0610 
 18 C       -7.2770     4.8450     0.5570 C.3   1 <1>   0.0610 
 19 C       -6.6330     6.1680     0.1280 C.2   1 <1>   0.4480 
 20 C       -4.5780     7.3440    -0.9210 C.3   1 <1>  -0.1600 
 21 C       -8.6690     4.9900     1.2240 C.3   1 <1>  -0.1600 
 22 O       -7.1960     7.2180     0.1980 O.2   1 <1>  -0.5700 
 23 C       -4.2030     8.3300     0.2040 C.3   1 <1>  -0.1600 
 24 C       -9.8080     5.4190     0.2800 C.3   1 <1>  -0.1600 
 25 C       -2.7450     8.1950     0.6650 C.3   1 <1>  -0.2400 
 26 C      -11.1160     5.5880     1.0580 C.3   1 <1>  -0.2400 
 27 H       -1.0480     2.3970    -2.3010 H     1 <1>   0.3700 
 28 H       -2.4470    -0.7020    -0.1460 H     1 <1>   0.3700 
 29 H       -5.1940    -0.5720     0.2770 H     1 <1>   0.0800 
 30 H       -5.3980     0.8260     1.3080 H     1 <1>   0.0800 
 31 H       -4.0950    -0.2660     1.5930 H     1 <1>   0.0800 
 32 H       -5.8250     2.2760     0.1140 H     1 <1>   0.0800 
 33 H       -6.0020     3.1540    -2.1040 H     1 <1>   0.4500 
 34 H       -4.5410     5.0420    -2.2540 H     1 <1>   0.0800 
 35 H       -6.1650     5.5910    -2.3340 H     1 <1>   0.0800 
 36 H       -7.7840     3.0110    -0.4540 H     1 <1>   0.0800 
 37 H       -7.9740     4.4380    -1.4390 H     1 <1>   0.0800 
 38 H       -3.3740     5.0790     0.1500 H     1 <1>   0.0800 
 39 H       -4.2560     5.8180     1.4460 H     1 <1>   0.0800 
 40 H       -6.6960     3.2510     1.9070 H     1 <1>   0.0800 
 41 H       -6.1540     4.8260     2.4040 H     1 <1>   0.0800 
 42 H       -5.2730     7.8480    -1.5720 H     1 <1>   0.0800 
 43 H       -3.7000     7.1370    -1.5100 H     1 <1>   0.0800 
 44 H       -8.5920     5.7140     2.0190 H     1 <1>   0.0800 
 45 H       -8.9480     4.0540     1.6770 H     1 <1>   0.0800 
 46 H       -4.8680     8.2300     1.0450 H     1 <1>   0.0800 
 47 H       -4.3300     9.3310    -0.1720 H     1 <1>   0.0800 
 48 H       -9.9690     4.6850    -0.4900 H     1 <1>   0.0800 
 49 H       -9.5730     6.3580    -0.1920 H     1 <1>   0.0800 
 50 H       -2.5420     7.2310     1.0910 H     1 <1>   0.0800 
 51 H       -2.5340     8.9400     1.4120 H     1 <1>   0.0800 
 52 H       -2.0740     8.3540    -0.1610 H     1 <1>   0.0800 
 53 H      -11.4040     4.6650     1.5290 H     1 <1>   0.0800 
 54 H      -11.9050     5.8900     0.3920 H     1 <1>   0.0800 
 55 H      -11.0080     6.3450     1.8160 H     1 <1>   0.0800 
@<TRIPOS>BOND
  1   1   2  2   
  2   2   3  am  
  3   2   4  am  
  4   3   5  am  
  5   3  27  1   
  6   4   6  1   
  7   4  28  1   
  8   5   7  2   
  9   5   8  1   
 10   6   8  2   
 11   6   9  1   
 12   8  10  1   
 13   9  29  1   
 14   9  30  1   
 15   9  31  1   
 16  10  11  1   
 17  10  12  1   
 18  10  32  1   
 19  11  13  1   
 20  11  14  1   
 21  11  33  1   
 22  12  15  1   
 23  12  16  1   
 24  13  17  1   
 25  13  34  1   
 26  13  35  1   
 27  14  18  1   
 28  14  36  1   
 29  14  37  1   
 30  15  17  1   
 31  15  38  1   
 32  15  39  1   
 33  16  18  1   
 34  16  40  1   
 35  16  41  1   
 36  17  19  1   
 37  17  20  1   
 38  18  19  1   
 39  18  21  1   
 40  19  22  2   
 41  20  23  1   
 42  20  42  1   
 43  20  43  1   
 44  21  24  1   
 45  21  44  1   
 46  21  45  1   
 47  23  25  1   
 48  23  46  1   
 49  23  47  1   
 50  24  26  1   
 51  24  48  1   
 52  24  49  1   
 53  25  50  1   
 54  25  51  1   
 55  25  52  1   
 56  26  53  1   
 57  26  54  1   
 58  26  55  1   
@<TRIPOS>SUBSTRUCTURE
  1 ****  10 GROUP 4 **** **** 0

# MOE 2024.06 (io_trps.svl 2023.06)
