@<TRIPOS>MOLECULE
N-tert-Butyl-2-methyl-5-tetrazol-1-yl-benzenesulfonamide
37 38 1 0 0 
SMALL
USER_CHARGES


@<TRIPOS>ATOM
  1 S       -0.2140     0.2950     1.5580 S.o2  1 <1>   1.4470 
  2 O        1.2100     0.3240     1.3120 O.2   1 <1>  -0.6500 
  3 O       -0.6600     0.2580     2.9300 O.2   1 <1>  -0.6500 
  4 N       -0.8460    -1.1120     0.8910 N.am  1 <1>  -0.9140 
  5 C       -1.0240     1.6770     0.6810 C.ar  1 <1>  -0.0090 
  6 C       -0.3370    -1.6850    -0.3260 C.3   1 <1>   0.3560 
  7 C       -2.4100     1.8440     0.6090 C.ar  1 <1>  -0.1440 
  8 C       -0.2250     2.6220     0.0440 C.ar  1 <1>  -0.1500 
  9 C        0.9720    -2.4320    -0.0620 C.3   1 <1>  -0.2400 
 10 C       -1.3950    -2.7010    -0.7520 C.3   1 <1>  -0.2400 
 11 C       -0.1840    -0.6450    -1.4380 C.3   1 <1>  -0.2400 
 12 C       -2.9480     2.9140    -0.0890 C.ar  1 <1>  -0.1500 
 13 C       -3.3760     0.8750     1.2820 C.3   1 <1>  -0.0970 
 14 C       -0.7510     3.7040    -0.6530 C.ar  1 <1>  -0.0230 
 15 C       -2.1320     3.8330    -0.7150 C.ar  1 <1>  -0.1500 
 16 N        0.0990     4.6580    -1.2870 N.pl3 1 <1>   0.5930 
 17 N       -0.1780     5.2920    -2.4170 N.2   1 <1>  -0.4180 
 18 C        1.2880     5.1000    -0.9020 C.2   1 <1>   0.0360 
 19 N        0.8150     6.0640    -2.6700 N.2   1 <1>   0.0000 
 20 N        1.7460     5.9570    -1.7290 N.2   1 <1>  -0.3380 
 21 H       -0.7200    -1.8030     1.6230 H     1 <1>   0.4200 
 22 H        0.8450     2.4990     0.0920 H     1 <1>   0.1500 
 23 H        1.7770    -1.7580     0.1610 H     1 <1>   0.0800 
 24 H        0.8610    -3.1280     0.7490 H     1 <1>   0.0800 
 25 H        1.2570    -2.9850    -0.9390 H     1 <1>   0.0800 
 26 H       -1.5290    -3.4540     0.0040 H     1 <1>   0.0800 
 27 H       -1.1000    -3.1900    -1.6630 H     1 <1>   0.0800 
 28 H       -2.3360    -2.2100    -0.9250 H     1 <1>   0.0800 
 29 H        0.0540    -1.1370    -2.3640 H     1 <1>   0.0800 
 30 H       -1.1000    -0.1000    -1.5770 H     1 <1>   0.0800 
 31 H        0.6180     0.0380    -1.2280 H     1 <1>   0.0800 
 32 H       -4.0160     3.0400    -0.1510 H     1 <1>   0.1500 
 33 H       -3.1340     0.7590     2.3230 H     1 <1>   0.0800 
 34 H       -3.3360    -0.0860     0.8030 H     1 <1>   0.0800 
 35 H       -4.3890     1.2330     1.2220 H     1 <1>   0.0800 
 36 H       -2.5740     4.6560    -1.2540 H     1 <1>   0.1500 
 37 H        1.7770     4.7700    -0.0070 H     1 <1>   0.1500 
@<TRIPOS>BOND
  1   1   2  2   
  2   1   3  2   
  3   1   4  am  
  4   1   5  1   
  5   4   6  1   
  6   4  21  1   
  7   5   7  ar  
  8   5   8  ar  
  9   6   9  1   
 10   6  10  1   
 11   6  11  1   
 12   7  12  ar  
 13   7  13  1   
 14   8  14  ar  
 15   8  22  1   
 16   9  23  1   
 17   9  24  1   
 18   9  25  1   
 19  10  26  1   
 20  10  27  1   
 21  10  28  1   
 22  11  29  1   
 23  11  30  1   
 24  11  31  1   
 25  12  15  ar  
 26  12  32  1   
 27  13  33  1   
 28  13  34  1   
 29  13  35  1   
 30  14  15  ar  
 31  14  16  1   
 32  15  36  1   
 33  16  17  1   
 34  16  18  1   
 35  17  19  2   
 36  18  20  2   
 37  18  37  1   
 38  19  20  1   
@<TRIPOS>SUBSTRUCTURE
  1 ****   8 GROUP 4 **** **** 0

# MOE 2024.06 (io_trps.svl 2023.06)
