@<TRIPOS>MOLECULE
1-(Furan-2-carbonyl)-piperidine-4-carboxylic acid (5-cyclohexyl-[1,3,4]thiadiazo
51 54 1 0 0 
SMALL
USER_CHARGES


@<TRIPOS>ATOM
  1 S       -1.3510     0.8540     0.3180 S.3   1 <1>  -0.0800 
  2 C       -1.6860    -0.1590    -1.0520 C.2   1 <1>   0.4420 
  3 C        0.1820     1.2030    -0.4080 C.2   1 <1>   0.1980 
  4 N       -0.7200    -0.1720    -1.8930 N.2   1 <1>  -0.3380 
  5 N       -2.8670    -0.8560    -1.1900 N.am  1 <1>  -0.4940 
  6 N        0.3410     0.6050    -1.5210 N.2   1 <1>  -0.3380 
  7 C        1.1160     2.1470     0.3430 C.3   1 <1>   0.1000 
  8 C       -3.9670    -0.9580    -0.3860 C.2   1 <1>   0.5690 
  9 C        2.1790     2.7590    -0.5890 C.3   1 <1>  -0.1600 
 10 C        1.7890     1.4190     1.5210 C.3   1 <1>  -0.1600 
 11 O       -4.0680    -0.3850     0.6680 O.2   1 <1>  -0.5700 
 12 C       -5.1100    -1.8500    -0.8820 C.3   1 <1>  -0.0190 
 13 C        3.1360     3.6870     0.1730 C.3   1 <1>  -0.1600 
 14 C        2.7510     2.3410     2.2850 C.3   1 <1>  -0.1600 
 15 C       -6.4480    -1.5680    -0.1650 C.3   1 <1>  -0.1600 
 16 C       -4.7540    -3.3420    -0.7380 C.3   1 <1>  -0.1600 
 17 C        3.7990     2.9520     1.3450 C.3   1 <1>  -0.1600 
 18 C       -7.5730    -2.4820    -0.6590 C.3   1 <1>   0.1400 
 19 C       -5.8840    -4.2420    -1.2460 C.3   1 <1>   0.1400 
 20 N       -7.1510    -3.9050    -0.5400 N.am  1 <1>  -0.6600 
 21 C       -7.7640    -4.8090     0.3130 C.2   1 <1>   0.7150 
 22 O       -7.1330    -5.7910     0.6660 O.2   1 <1>  -0.5700 
 23 C       -9.1290    -4.6250     0.7650 C.2   1 <1>   0.0550 
 24 O       -9.4730    -4.8640     2.0280 O.3   1 <1>  -0.2800 
 25 C      -10.2440    -4.2200     0.0910 C.2   1 <1>  -0.1500 
 26 C      -10.7560    -4.6240     2.1750 C.2   1 <1>  -0.0100 
 27 C      -11.2960    -4.2180     1.0070 C.2   1 <1>  -0.1500 
 28 H       -2.8930    -1.3950    -2.0500 H     1 <1>   0.3700 
 29 H        0.5190     2.9510     0.7370 H     1 <1>   0.0800 
 30 H        1.6920     3.3100    -1.3750 H     1 <1>   0.0800 
 31 H        2.7470     1.9680    -1.0480 H     1 <1>   0.0800 
 32 H        2.3350     0.5710     1.1440 H     1 <1>   0.0800 
 33 H        1.0380     1.0520     2.1980 H     1 <1>   0.0800 
 34 H       -5.2540    -1.6360    -1.9260 H     1 <1>   0.0800 
 35 H        2.5910     4.5370     0.5460 H     1 <1>   0.0800 
 36 H        3.8940     4.0500    -0.4990 H     1 <1>   0.0800 
 37 H        3.2460     1.7820     3.0600 H     1 <1>   0.0800 
 38 H        2.1910     3.1320     2.7560 H     1 <1>   0.0800 
 39 H       -6.7320    -0.5420    -0.3190 H     1 <1>   0.0800 
 40 H       -6.3300    -1.7140     0.8960 H     1 <1>   0.0800 
 41 H       -4.5680    -3.5740     0.2970 H     1 <1>   0.0800 
 42 H       -3.8580    -3.5670    -1.2880 H     1 <1>   0.0800 
 43 H        4.4210     3.6370     1.8950 H     1 <1>   0.0800 
 44 H        4.4320     2.1690     0.9620 H     1 <1>   0.0800 
 45 H       -7.8000    -2.2670    -1.6890 H     1 <1>   0.0800 
 46 H       -8.4540    -2.2890    -0.0720 H     1 <1>   0.0800 
 47 H       -5.6210    -5.2750    -1.0900 H     1 <1>   0.0800 
 48 H       -6.0250    -4.0960    -2.3030 H     1 <1>   0.0800 
 49 H      -10.3220    -3.9560    -0.9490 H     1 <1>   0.1500 
 50 H      -11.2060    -4.7680     3.1420 H     1 <1>   0.1500 
 51 H      -12.3160    -3.9480     0.7970 H     1 <1>   0.1500 
@<TRIPOS>BOND
  1   1   2  1   
  2   1   3  1   
  3   2   4  2   
  4   2   5  1   
  5   3   6  2   
  6   3   7  1   
  7   4   6  1   
  8   5   8  am  
  9   5  28  1   
 10   7   9  1   
 11   7  10  1   
 12   7  29  1   
 13   8  11  2   
 14   8  12  1   
 15   9  13  1   
 16   9  30  1   
 17   9  31  1   
 18  10  14  1   
 19  10  32  1   
 20  10  33  1   
 21  12  15  1   
 22  12  16  1   
 23  12  34  1   
 24  13  17  1   
 25  13  35  1   
 26  13  36  1   
 27  14  17  1   
 28  14  37  1   
 29  14  38  1   
 30  15  18  1   
 31  15  39  1   
 32  15  40  1   
 33  16  19  1   
 34  16  41  1   
 35  16  42  1   
 36  17  43  1   
 37  17  44  1   
 38  18  20  1   
 39  18  45  1   
 40  18  46  1   
 41  19  20  1   
 42  19  47  1   
 43  19  48  1   
 44  20  21  am  
 45  21  22  2   
 46  21  23  1   
 47  23  24  1   
 48  23  25  2   
 49  24  26  1   
 50  25  27  1   
 51  25  49  1   
 52  26  27  2   
 53  26  50  1   
 54  27  51  1   
@<TRIPOS>SUBSTRUCTURE
  1 ****   8 GROUP 4 **** **** 0

# MOE 2024.06 (io_trps.svl 2023.06)
