@<TRIPOS>MOLECULE
1-Methyl-2-methylsulfanyl-5-(3,4,5-trimethoxy-phenyl)-5,8-dihydro-1H,6H-pyrido[2
48 50 1 0 0 
SMALL
USER_CHARGES


@<TRIPOS>ATOM
  1 S        1.7290    -0.1870    -2.1900 S.3   1 <1>  -0.3710 
  2 C        2.3570     0.9140    -0.9290 C.2   1 <1>   0.6410 
  3 C       -0.0150     0.3630    -2.4700 C.3   1 <1>  -0.0100 
  4 N        1.5490     1.8020    -0.4890 N.2   1 <1>  -0.6610 
  5 N        3.6630     0.7250    -0.5280 N.pl3 1 <1>  -0.5190 
  6 C        2.0310     2.6540     0.4540 C.2   1 <1>   0.7670 
  7 C        4.1820     1.6080     0.3910 C.2   1 <1>   0.2090 
  8 C        4.4530    -0.4200    -1.0810 C.3   1 <1>   0.1290 
  9 O        1.2480     3.4710     0.9240 O.2   1 <1>  -0.5700 
 10 C        3.3730     2.5840     0.8840 C.2   1 <1>  -0.1240 
 11 N        5.4940     1.5140     0.7980 N.am  1 <1>  -0.5390 
 12 C        3.9070     3.6230     1.8650 C.3   1 <1>   0.2020 
 13 C        6.0410     2.2310     1.8110 C.2   1 <1>   0.5690 
 14 C        4.2020     4.9240     1.1180 C.ar  1 <1>  -0.1440 
 15 C        5.1410     3.1230     2.6400 C.3   1 <1>  -0.0990 
 16 O        7.2120     2.1400     2.0660 O.2   1 <1>  -0.5700 
 17 C        5.1820     4.9990     0.1360 C.ar  1 <1>  -0.1500 
 18 C        3.4630     6.0610     1.4060 C.ar  1 <1>  -0.1500 
 19 C        5.4350     6.1790    -0.5450 C.ar  1 <1>   0.0820 
 20 C        3.7020     7.2510     0.7400 C.ar  1 <1>   0.0820 
 21 O        6.4120     6.1160    -1.4910 O.3   1 <1>  -0.3630 
 22 C        4.7060     7.3310    -0.2270 C.ar  1 <1>   0.0820 
 23 O        2.9340     8.3180     1.0720 O.3   1 <1>  -0.3630 
 24 C        6.2360     6.7850    -2.7210 C.3   1 <1>   0.0400 
 25 O        4.9740     8.5230    -0.8280 O.3   1 <1>  -0.3630 
 26 C        1.9740     8.7010     0.1140 C.3   1 <1>   0.0400 
 27 C        5.7200     9.4280    -0.0480 C.3   1 <1>   0.0400 
 28 H       -0.5470     0.2630    -1.5410 H     1 <1>   0.0800 
 29 H       -0.4430    -0.2650    -3.2300 H     1 <1>   0.0800 
 30 H        0.0090     1.3910    -2.7870 H     1 <1>   0.0800 
 31 H        3.8880    -1.3310    -0.9890 H     1 <1>   0.0800 
 32 H        5.3790    -0.5600    -0.5560 H     1 <1>   0.0800 
 33 H        4.6660    -0.2410    -2.1210 H     1 <1>   0.0800 
 34 H        6.1500     0.9150     0.3010 H     1 <1>   0.3700 
 35 H        3.1440     3.8220     2.6000 H     1 <1>   0.0800 
 36 H        4.8130     2.5440     3.4830 H     1 <1>   0.0800 
 37 H        5.7070     3.9570     3.0140 H     1 <1>   0.0800 
 38 H        5.7690     4.1400    -0.1280 H     1 <1>   0.1500 
 39 H        2.6820     6.0400     2.1460 H     1 <1>   0.1500 
 40 H        6.8590     6.3060    -3.4540 H     1 <1>   0.0800 
 41 H        6.5350     7.8110    -2.6050 H     1 <1>   0.0800 
 42 H        5.2030     6.7200    -3.0140 H     1 <1>   0.0800 
 43 H        1.3970     9.5120     0.5210 H     1 <1>   0.0800 
 44 H        1.3360     7.8600    -0.0930 H     1 <1>   0.0800 
 45 H        2.4760     9.0200    -0.7820 H     1 <1>   0.0800 
 46 H        5.9020    10.3100    -0.6350 H     1 <1>   0.0800 
 47 H        6.6520     8.9630     0.2240 H     1 <1>   0.0800 
 48 H        5.1570     9.6810     0.8330 H     1 <1>   0.0800 
@<TRIPOS>BOND
  1   1   2  1   
  2   1   3  1   
  3   2   4  2   
  4   2   5  1   
  5   3  28  1   
  6   3  29  1   
  7   3  30  1   
  8   4   6  1   
  9   5   7  1   
 10   5   8  1   
 11   6   9  2   
 12   6  10  1   
 13   7  10  2   
 14   7  11  1   
 15   8  31  1   
 16   8  32  1   
 17   8  33  1   
 18  10  12  1   
 19  11  13  am  
 20  11  34  1   
 21  12  14  1   
 22  12  15  1   
 23  12  35  1   
 24  13  15  1   
 25  13  16  2   
 26  14  17  ar  
 27  14  18  ar  
 28  15  36  1   
 29  15  37  1   
 30  17  19  ar  
 31  17  38  1   
 32  18  20  ar  
 33  18  39  1   
 34  19  21  1   
 35  19  22  ar  
 36  20  22  ar  
 37  20  23  1   
 38  21  24  1   
 39  22  25  1   
 40  23  26  1   
 41  24  40  1   
 42  24  41  1   
 43  24  42  1   
 44  25  27  1   
 45  26  43  1   
 46  26  44  1   
 47  26  45  1   
 48  27  46  1   
 49  27  47  1   
 50  27  48  1   
@<TRIPOS>SUBSTRUCTURE
  1 ****  14 GROUP 4 **** **** 0

# MOE 2024.06 (io_trps.svl 2023.06)
