@<TRIPOS>MOLECULE
2-Amino-5-(3,4,5-trimethoxy-phenyl)-5,8-dihydro-3H,6H-pyrido[2,3-d]pyrimidine-4,
43 45 1 0 0 
SMALL
USER_CHARGES


@<TRIPOS>ATOM
  1 O        0.9520    -0.8760     1.9590 O.2   1 <1>  -0.5700 
  2 C        0.6400    -1.7020     1.1120 C.2   1 <1>   0.6160 
  3 N       -0.5860    -2.2630     1.2220 N.am  1 <1>  -0.4900 
  4 C        1.4570    -2.1640     0.0650 C.2   1 <1>  -0.1240 
  5 C       -0.9730    -3.2710     0.4150 C.2   1 <1>   0.5600 
  6 C        0.9940    -3.2160    -0.6750 C.2   1 <1>   0.2800 
  7 C        2.8400    -1.5620    -0.2050 C.3   1 <1>   0.2020 
  8 N       -0.2240    -3.7730    -0.5110 N.2   1 <1>  -0.6210 
  9 N       -2.1950    -3.7820     0.5900 N.pl3 1 <1>  -0.8500 
 10 N        1.7780    -3.8120    -1.6230 N.am  1 <1>  -0.5390 
 11 C        2.8250    -0.0340    -0.1780 C.ar  1 <1>  -0.1430 
 12 C        3.4450    -2.0060    -1.5540 C.3   1 <1>  -0.0990 
 13 C        3.0040    -3.3830    -1.9960 C.2   1 <1>   0.5690 
 14 C        1.8880     0.6800    -0.9120 C.ar  1 <1>  -0.1500 
 15 C        3.7520     0.6640     0.5800 C.ar  1 <1>  -0.1500 
 16 O        3.7220    -4.0550    -2.6890 O.2   1 <1>  -0.5700 
 17 C        1.8570     2.0650    -0.8900 C.ar  1 <1>   0.0830 
 18 C        3.7440     2.0480     0.6150 C.ar  1 <1>   0.0830 
 19 O        0.8950     2.6420    -1.6620 O.3   1 <1>  -0.3630 
 20 C        2.7740     2.7640    -0.0940 C.ar  1 <1>   0.0830 
 21 O        4.7040     2.6420     1.3730 O.3   1 <1>  -0.3630 
 22 C        1.1790     3.8270    -2.3730 C.3   1 <1>   0.0400 
 23 O        2.7000     4.1170     0.0270 O.3   1 <1>  -0.3630 
 24 C        5.5640     3.5590     0.7330 C.3   1 <1>   0.0400 
 25 C        2.0690     4.5660     1.2040 C.3   1 <1>   0.0400 
 26 H       -1.1740    -1.9160     1.9700 H     1 <1>   0.3700 
 27 H        3.4840    -1.9190     0.5810 H     1 <1>   0.0800 
 28 H       -2.4950    -4.5370    -0.0280 H     1 <1>   0.4000 
 29 H       -2.8840    -3.4420     1.2560 H     1 <1>   0.4000 
 30 H        1.4470    -4.6890    -2.0200 H     1 <1>   0.3700 
 31 H        4.5170    -1.9740    -1.4970 H     1 <1>   0.0800 
 32 H        3.1430    -1.3280    -2.3310 H     1 <1>   0.0800 
 33 H        1.1600     0.1680    -1.5160 H     1 <1>   0.1500 
 34 H        4.4930     0.1440     1.1600 H     1 <1>   0.1500 
 35 H        0.4960     3.8930    -3.2000 H     1 <1>   0.0800 
 36 H        2.1930     3.7890    -2.7320 H     1 <1>   0.0800 
 37 H        1.0390     4.6680    -1.7190 H     1 <1>   0.0800 
 38 H        6.4270     3.7010     1.3570 H     1 <1>   0.0800 
 39 H        5.0530     4.4960     0.6040 H     1 <1>   0.0800 
 40 H        5.8600     3.1570    -0.2200 H     1 <1>   0.0800 
 41 H        2.0320     5.6390     1.1810 H     1 <1>   0.0800 
 42 H        2.6370     4.2330     2.0550 H     1 <1>   0.0800 
 43 H        1.0730     4.1600     1.2390 H     1 <1>   0.0800 
@<TRIPOS>BOND
  1   1   2  2   
  2   2   3  am  
  3   2   4  1   
  4   3   5  1   
  5   3  26  1   
  6   4   6  2   
  7   4   7  1   
  8   5   8  2   
  9   5   9  1   
 10   6   8  1   
 11   6  10  1   
 12   7  11  1   
 13   7  12  1   
 14   7  27  1   
 15   9  28  1   
 16   9  29  1   
 17  10  13  am  
 18  10  30  1   
 19  11  14  ar  
 20  11  15  ar  
 21  12  13  1   
 22  12  31  1   
 23  12  32  1   
 24  13  16  2   
 25  14  17  ar  
 26  14  33  1   
 27  15  18  ar  
 28  15  34  1   
 29  17  19  1   
 30  17  20  ar  
 31  18  20  ar  
 32  18  21  1   
 33  19  22  1   
 34  20  23  1   
 35  21  24  1   
 36  22  35  1   
 37  22  36  1   
 38  22  37  1   
 39  23  25  1   
 40  24  38  1   
 41  24  39  1   
 42  24  40  1   
 43  25  41  1   
 44  25  42  1   
 45  25  43  1   
@<TRIPOS>SUBSTRUCTURE
  1 ****  11 GROUP 4 **** **** 0

# MOE 2024.06 (io_trps.svl 2023.06)
