@<TRIPOS>MOLECULE
4-tert-Butyl-N-[3-(3,4-dimethoxy-phenyl)-[1,2,4]oxadiazol-5-ylmethyl]-N-methyl-b
57 59 1 0 0 
SMALL
USER_CHARGES


@<TRIPOS>ATOM
  1 O       -0.0200     0.1950     0.2120 O.2   1 <1>  -0.5700 
  2 C        0.2740     1.3340     0.5220 C.2   1 <1>   0.5440 
  3 N        1.5530     1.5810     0.9720 N.am  1 <1>  -0.6600 
  4 C       -0.7230     2.3840     0.4190 C.ar  1 <1>   0.0860 
  5 C        2.6330     0.5550     0.8050 C.3   1 <1>   0.3200 
  6 C        1.9300     2.7880     1.7640 C.3   1 <1>   0.0600 
  7 C       -0.4550     3.5910    -0.2220 C.ar  1 <1>  -0.1500 
  8 C       -1.9950     2.2220     0.9580 C.ar  1 <1>  -0.1500 
  9 C        3.9040     1.1550     0.2210 C.2   1 <1>   0.2980 
 10 C       -1.4060     4.5920    -0.3000 C.ar  1 <1>  -0.1500 
 11 C       -2.9480     3.2210     0.8800 C.ar  1 <1>  -0.1500 
 12 O        3.8770     1.5980    -1.0080 O.3   1 <1>  -0.0190 
 13 N        5.0170     1.2840     0.8210 N.2   1 <1>  -0.5650 
 14 C       -2.6730     4.4320     0.2510 C.ar  1 <1>  -0.1430 
 15 N        5.0750     2.0510    -1.2080 N.2   1 <1>  -0.4100 
 16 C        5.7530     1.8670    -0.1300 C.2   1 <1>   0.4620 
 17 C       -3.7020     5.5790     0.1400 C.3   1 <1>   0.1430 
 18 C        7.1450     2.2370     0.0680 C.ar  1 <1>   0.0540 
 19 C       -3.9760     5.8800    -1.3410 C.3   1 <1>  -0.2400 
 20 C       -5.0500     5.2500     0.8030 C.3   1 <1>  -0.2400 
 21 C       -3.1450     6.8380     0.8220 C.3   1 <1>  -0.2400 
 22 C        7.8090     1.9950     1.2700 C.ar  1 <1>  -0.1500 
 23 C        7.8800     2.8550    -0.9440 C.ar  1 <1>  -0.1500 
 24 C        9.1330     2.3420     1.4710 C.ar  1 <1>   0.0830 
 25 C        9.2010     3.2210    -0.7640 C.ar  1 <1>  -0.1500 
 26 O        9.6310     2.0240     2.6990 O.3   1 <1>  -0.3620 
 27 C        9.8480     2.9810     0.4450 C.ar  1 <1>   0.0830 
 28 C       10.9740     1.6190     2.8540 C.3   1 <1>   0.0400 
 29 O       11.1400     3.3680     0.6500 O.3   1 <1>  -0.3630 
 30 C       11.8410     4.1690    -0.2760 C.3   1 <1>   0.0400 
 31 H        2.3080    -0.2390     0.1560 H     1 <1>   0.0800 
 32 H        2.8560     0.1260     1.7660 H     1 <1>   0.0800 
 33 H        1.0550     3.2920     2.1360 H     1 <1>   0.0800 
 34 H        2.4920     3.4690     1.1470 H     1 <1>   0.0800 
 35 H        2.5370     2.5000     2.6060 H     1 <1>   0.0800 
 36 H        0.5120     3.7420    -0.6670 H     1 <1>   0.1500 
 37 H       -2.2350     1.2920     1.4430 H     1 <1>   0.1500 
 38 H       -1.1470     5.5050    -0.8040 H     1 <1>   0.1500 
 39 H       -3.9080     3.0250     1.3220 H     1 <1>   0.1500 
 40 H       -3.0840     6.2080    -1.8430 H     1 <1>   0.0800 
 41 H       -4.7180     6.6520    -1.4410 H     1 <1>   0.0800 
 42 H       -4.3340     4.9950    -1.8360 H     1 <1>   0.0800 
 43 H       -5.4990     4.3900     0.3390 H     1 <1>   0.0800 
 44 H       -5.7320     6.0750     0.7040 H     1 <1>   0.0800 
 45 H       -4.9160     5.0530     1.8520 H     1 <1>   0.0800 
 46 H       -3.8620     7.6380     0.7860 H     1 <1>   0.0800 
 47 H       -2.9190     6.6280     1.8520 H     1 <1>   0.0800 
 48 H       -2.2460     7.1750     0.3410 H     1 <1>   0.0800 
 49 H        7.2840     1.5190     2.0780 H     1 <1>   0.1500 
 50 H        7.4080     3.0550    -1.8900 H     1 <1>   0.1500 
 51 H        9.7070     3.6950    -1.5830 H     1 <1>   0.1500 
 52 H       11.0520     1.0630     3.7700 H     1 <1>   0.0800 
 53 H       11.5960     2.4940     2.9060 H     1 <1>   0.0800 
 54 H       11.2540     1.0000     2.0200 H     1 <1>   0.0800 
 55 H       12.8030     4.3990     0.1450 H     1 <1>   0.0800 
 56 H       11.2890     5.0760    -0.4420 H     1 <1>   0.0800 
 57 H       11.9670     3.6170    -1.1910 H     1 <1>   0.0800 
@<TRIPOS>BOND
  1   1   2  2   
  2   2   3  am  
  3   2   4  1   
  4   3   5  1   
  5   3   6  1   
  6   4   7  ar  
  7   4   8  ar  
  8   5   9  1   
  9   5  31  1   
 10   5  32  1   
 11   6  33  1   
 12   6  34  1   
 13   6  35  1   
 14   7  10  ar  
 15   7  36  1   
 16   8  11  ar  
 17   8  37  1   
 18   9  12  1   
 19   9  13  2   
 20  10  14  ar  
 21  10  38  1   
 22  11  14  ar  
 23  11  39  1   
 24  12  15  1   
 25  13  16  1   
 26  14  17  1   
 27  15  16  2   
 28  16  18  1   
 29  17  19  1   
 30  17  20  1   
 31  17  21  1   
 32  18  22  ar  
 33  18  23  ar  
 34  19  40  1   
 35  19  41  1   
 36  19  42  1   
 37  20  43  1   
 38  20  44  1   
 39  20  45  1   
 40  21  46  1   
 41  21  47  1   
 42  21  48  1   
 43  22  24  ar  
 44  22  49  1   
 45  23  25  ar  
 46  23  50  1   
 47  24  26  1   
 48  24  27  ar  
 49  25  27  ar  
 50  25  51  1   
 51  26  28  1   
 52  27  29  1   
 53  28  52  1   
 54  28  53  1   
 55  28  54  1   
 56  29  30  1   
 57  30  55  1   
 58  30  56  1   
 59  30  57  1   
@<TRIPOS>SUBSTRUCTURE
  1 ****   9 GROUP 4 **** **** 0

# MOE 2024.06 (io_trps.svl 2023.06)
