@<TRIPOS>MOLECULE
6-(4-Phenyl-piperazine-1-sulfonyl)-3,4-dihydro-2H-quinoline-1-carboxylic acid me
54 57 1 0 0 
SMALL
USER_CHARGES


@<TRIPOS>ATOM
  1 S       -0.1410     0.6040     2.2850 S.o2  1 <1>   1.4470 
  2 O        0.4420     1.5780     3.1800 O.2   1 <1>  -0.6500 
  3 O       -1.2340    -0.2230     2.7520 O.2   1 <1>  -0.6500 
  4 N       -0.7270     1.4620     0.9460 N.am  1 <1>  -0.8490 
  5 C        1.1760    -0.4270     1.5830 C.ar  1 <1>  -0.0090 
  6 C       -1.4790     0.5980     0.0130 C.3   1 <1>   0.1960 
  7 C       -1.5840     2.5840     1.3770 C.3   1 <1>   0.1960 
  8 C        2.2070     0.1370     0.8420 C.ar  1 <1>  -0.1500 
  9 C        1.2030    -1.8020     1.7750 C.ar  1 <1>  -0.1500 
 10 C       -1.9880     1.3630    -1.2250 C.3   1 <1>   0.2090 
 11 C       -2.1200     3.4200     0.1970 C.3   1 <1>   0.2090 
 12 C        3.2210    -0.6370     0.3030 C.ar  1 <1>  -0.1440 
 13 C        2.2100    -2.5820     1.2360 C.ar  1 <1>  -0.1500 
 14 N       -2.7690     2.5810    -0.8560 N.pl3 1 <1>  -0.8380 
 15 C        3.2290    -2.0210     0.4720 C.ar  1 <1>   0.1170 
 16 C        4.3630     0.0170    -0.4500 C.3   1 <1>  -0.0170 
 17 C       -4.1570     2.4950    -0.8720 C.ar  1 <1>   0.1000 
 18 N        4.2620    -2.8050    -0.1020 N.am  1 <1>  -0.4770 
 19 C        5.6540    -0.6800    -0.0220 C.3   1 <1>  -0.1600 
 20 C       -4.8630     3.0890    -1.9090 C.ar  1 <1>  -0.1500 
 21 C       -4.8640     1.8280     0.1220 C.ar  1 <1>  -0.1500 
 22 C        4.1130    -4.0850    -0.6020 C.2   1 <1>   0.7800 
 23 C        5.6020    -2.1800    -0.3400 C.3   1 <1>   0.1400 
 24 C       -6.2440     3.0200    -1.9570 C.ar  1 <1>  -0.1500 
 25 C       -6.2450     1.7560     0.0790 C.ar  1 <1>  -0.1500 
 26 O        5.0660    -4.7720    -0.9230 O.2   1 <1>  -0.5700 
 27 O        2.8800    -4.5740    -0.7670 O.3   1 <1>  -0.4300 
 28 C       -6.9380     2.3520    -0.9620 C.ar  1 <1>  -0.1500 
 29 C        2.6630    -5.8650    -1.3010 C.3   1 <1>   0.0400 
 30 H       -2.3260     0.1610     0.5140 H     1 <1>   0.0800 
 31 H       -0.8470    -0.2060    -0.3220 H     1 <1>   0.0800 
 32 H       -1.0210     3.2390     2.0200 H     1 <1>   0.0800 
 33 H       -2.4170     2.2080     1.9460 H     1 <1>   0.0800 
 34 H        2.2100     1.2050     0.6980 H     1 <1>   0.1500 
 35 H        0.4270    -2.2700     2.3580 H     1 <1>   0.1500 
 36 H       -2.6060     0.7110    -1.8180 H     1 <1>   0.0800 
 37 H       -1.1480     1.6580    -1.8270 H     1 <1>   0.0800 
 38 H       -1.3030     3.9610    -0.2470 H     1 <1>   0.0800 
 39 H       -2.8290     4.1410     0.5650 H     1 <1>   0.0800 
 40 H        2.2030    -3.6410     1.4210 H     1 <1>   0.1500 
 41 H        4.4220     1.0660    -0.2180 H     1 <1>   0.0800 
 42 H        4.2100    -0.0940    -1.5100 H     1 <1>   0.0800 
 43 H        5.7920    -0.5530     1.0380 H     1 <1>   0.0800 
 44 H        6.5000    -0.2370    -0.5170 H     1 <1>   0.0800 
 45 H       -4.3150     3.6040    -2.6750 H     1 <1>   0.1500 
 46 H       -4.3330     1.3630     0.9290 H     1 <1>   0.1500 
 47 H        5.8530    -2.3180    -1.3790 H     1 <1>   0.0800 
 48 H        6.3400    -2.7000     0.2460 H     1 <1>   0.0800 
 49 H       -6.7780     3.4850    -2.7670 H     1 <1>   0.1500 
 50 H       -6.7820     1.2370     0.8530 H     1 <1>   0.1500 
 51 H       -8.0120     2.2980    -0.9970 H     1 <1>   0.1500 
 52 H        1.6040    -6.0440    -1.3410 H     1 <1>   0.0800 
 53 H        3.1390    -6.5900    -0.6640 H     1 <1>   0.0800 
 54 H        3.0840    -5.9070    -2.2910 H     1 <1>   0.0800 
@<TRIPOS>BOND
  1   1   2  2   
  2   1   3  2   
  3   1   4  am  
  4   1   5  1   
  5   4   6  1   
  6   4   7  1   
  7   5   8  ar  
  8   5   9  ar  
  9   6  10  1   
 10   6  30  1   
 11   6  31  1   
 12   7  11  1   
 13   7  32  1   
 14   7  33  1   
 15   8  12  ar  
 16   8  34  1   
 17   9  13  ar  
 18   9  35  1   
 19  10  14  1   
 20  10  36  1   
 21  10  37  1   
 22  11  14  1   
 23  11  38  1   
 24  11  39  1   
 25  12  15  ar  
 26  12  16  1   
 27  13  15  ar  
 28  13  40  1   
 29  14  17  1   
 30  15  18  1   
 31  16  19  1   
 32  16  41  1   
 33  16  42  1   
 34  17  20  ar  
 35  17  21  ar  
 36  18  22  am  
 37  18  23  1   
 38  19  23  1   
 39  19  43  1   
 40  19  44  1   
 41  20  24  ar  
 42  20  45  1   
 43  21  25  ar  
 44  21  46  1   
 45  22  26  2   
 46  22  27  1   
 47  23  47  1   
 48  23  48  1   
 49  24  28  ar  
 50  24  49  1   
 51  25  28  ar  
 52  25  50  1   
 53  27  29  1   
 54  28  51  1   
 55  29  52  1   
 56  29  53  1   
 57  29  54  1   
@<TRIPOS>SUBSTRUCTURE
  1 ****   6 GROUP 4 **** **** 0

# MOE 2024.06 (io_trps.svl 2023.06)
