@<TRIPOS>MOLECULE
N-Ethyl-2,2-dimethyl-N-(3-p-tolyl-[1,2,4]oxadiazol-5-ylmethyl)-propionamide
45 46 1 0 0 
SMALL
USER_CHARGES


@<TRIPOS>ATOM
  1 O        0.3760     0.7400    -0.3040 O.2   1 <1>  -0.5700 
  2 C        0.4220     1.9490    -0.3570 C.2   1 <1>   0.5690 
  3 N        1.4910     2.5250    -1.0250 N.am  1 <1>  -0.6600 
  4 C       -0.7910     2.6870     0.3120 C.3   1 <1>   0.0610 
  5 C        2.5390     1.6180    -1.6110 C.3   1 <1>   0.3200 
  6 C        1.8400     3.9620    -1.2090 C.3   1 <1>   0.1400 
  7 C       -1.9730     2.7050    -0.6760 C.3   1 <1>  -0.2400 
  8 C       -0.5600     4.1310     0.8020 C.3   1 <1>  -0.2400 
  9 C       -1.2550     1.9020     1.5640 C.3   1 <1>  -0.2400 
 10 C        3.7870     1.5640    -0.7420 C.2   1 <1>   0.2980 
 11 C        1.1330     4.5180    -2.4420 C.3   1 <1>  -0.2400 
 12 O        3.7130     0.9950     0.4320 O.3   1 <1>  -0.0190 
 13 N        4.9270     2.0370    -1.0480 N.2   1 <1>  -0.5650 
 14 N        4.9080     1.1170     0.9170 N.2   1 <1>  -0.4100 
 15 C        5.6300     1.7320     0.0480 C.2   1 <1>   0.4620 
 16 C        7.0350     2.0740     0.2020 C.ar  1 <1>   0.0540 
 17 C        7.7490     2.7230    -0.8070 C.ar  1 <1>  -0.1500 
 18 C        7.7310     1.7670     1.3720 C.ar  1 <1>  -0.1500 
 19 C        9.0850     3.0490    -0.6570 C.ar  1 <1>  -0.1500 
 20 C        9.0670     2.0900     1.5280 C.ar  1 <1>  -0.1500 
 21 C        9.7530     2.7360     0.5140 C.ar  1 <1>  -0.1440 
 22 C       11.2190     3.0910     0.6810 C.3   1 <1>  -0.0970 
 23 H        2.8110     1.9810    -2.5860 H     1 <1>   0.0800 
 24 H        2.1690     0.6170    -1.7450 H     1 <1>   0.0800 
 25 H        2.9040     4.0580    -1.3530 H     1 <1>   0.0800 
 26 H        1.6160     4.5340    -0.3320 H     1 <1>   0.0800 
 27 H       -1.7180     3.2540    -1.5630 H     1 <1>   0.0800 
 28 H       -2.8410     3.1570    -0.2300 H     1 <1>   0.0800 
 29 H       -2.2250     1.7000    -0.9670 H     1 <1>   0.0800 
 30 H        0.3170     4.1790     1.4240 H     1 <1>   0.0800 
 31 H       -1.3970     4.4730     1.3860 H     1 <1>   0.0800 
 32 H       -0.4640     4.8120    -0.0210 H     1 <1>   0.0800 
 33 H       -0.4520     1.8330     2.2750 H     1 <1>   0.0800 
 34 H       -1.5530     0.9020     1.3000 H     1 <1>   0.0800 
 35 H       -2.0950     2.3780     2.0380 H     1 <1>   0.0800 
 36 H        1.4190     3.9660    -3.3200 H     1 <1>   0.0800 
 37 H        1.4120     5.5460    -2.5830 H     1 <1>   0.0800 
 38 H        0.0680     4.4710    -2.3280 H     1 <1>   0.0800 
 39 H        7.2510     2.9770    -1.7270 H     1 <1>   0.1500 
 40 H        7.2180     1.2660     2.1740 H     1 <1>   0.1500 
 41 H        9.6030     3.5480    -1.4570 H     1 <1>   0.1500 
 42 H        9.5710     1.8360     2.4440 H     1 <1>   0.1500 
 43 H       11.8320     2.2800     0.3290 H     1 <1>   0.0800 
 44 H       11.4460     3.2740     1.7160 H     1 <1>   0.0800 
 45 H       11.4580     3.9760     0.1200 H     1 <1>   0.0800 
@<TRIPOS>BOND
  1   1   2  2   
  2   2   3  am  
  3   2   4  1   
  4   3   5  1   
  5   3   6  1   
  6   4   7  1   
  7   4   8  1   
  8   4   9  1   
  9   5  10  1   
 10   5  23  1   
 11   5  24  1   
 12   6  11  1   
 13   6  25  1   
 14   6  26  1   
 15   7  27  1   
 16   7  28  1   
 17   7  29  1   
 18   8  30  1   
 19   8  31  1   
 20   8  32  1   
 21   9  33  1   
 22   9  34  1   
 23   9  35  1   
 24  10  12  1   
 25  10  13  2   
 26  11  36  1   
 27  11  37  1   
 28  11  38  1   
 29  12  14  1   
 30  13  15  1   
 31  14  15  2   
 32  15  16  1   
 33  16  17  ar  
 34  16  18  ar  
 35  17  19  ar  
 36  17  39  1   
 37  18  20  ar  
 38  18  40  1   
 39  19  21  ar  
 40  19  41  1   
 41  20  21  ar  
 42  20  42  1   
 43  21  22  1   
 44  22  43  1   
 45  22  44  1   
 46  22  45  1   
@<TRIPOS>SUBSTRUCTURE
  1 ****  10 GROUP 4 **** **** 0

# MOE 2024.06 (io_trps.svl 2023.06)
