@<TRIPOS>MOLECULE
1-Methyl-8-(2-propoxy-phenyl)-3-propyl-7,8-dihydro-1H,6H-imidazo[2,1-f]purine-2,
54 57 1 0 0 
SMALL
USER_CHARGES


@<TRIPOS>ATOM
  1 O        1.4730     1.5550    -2.0900 O.2   1 <1>  -0.5740 
  2 C        2.1970     1.3880    -1.1300 C.2   1 <1>   0.6870 
  3 N        2.0850     2.2130    -0.0130 N.am  1 <1>  -0.4250 
  4 N        3.1360     0.3640    -1.1510 N.am  1 <1>  -0.4410 
  5 C        2.8820     2.0210     1.1080 C.2   1 <1>   0.7000 
  6 C        1.1060     3.3400    -0.0310 C.3   1 <1>   0.1330 
  7 C        3.9140     0.1700    -0.0260 C.2   1 <1>   0.4210 
  8 C        3.2700    -0.5230    -2.3450 C.3   1 <1>   0.0530 
  9 O        2.7850     2.7410     2.0880 O.2   1 <1>  -0.5740 
 10 C        3.8260     0.9490     1.0780 C.2   1 <1>   0.2710 
 11 C        1.7680     4.6020    -0.5940 C.3   1 <1>  -0.1670 
 12 N        4.8810    -0.7740     0.1790 N.pl3 1 <1>  -0.7030 
 13 N        4.7840     0.4480     1.9650 N.pl3 1 <1>  -0.7670 
 14 C        0.7830     5.7750    -0.6220 C.3   1 <1>  -0.2460 
 15 C        5.3900    -0.5590     1.3840 C.cat 1 <1>   1.0690 
 16 C        5.3560     0.7550     3.2840 C.3   1 <1>   0.3490 
 17 N        6.3610    -1.1060     2.1230 N.pl3 1 <1>  -0.5790 
 18 C        6.4520    -0.3320     3.4040 C.3   1 <1>   0.1610 
 19 C        7.2440    -2.1600     1.7930 C.ar  1 <1>   0.3050 
 20 C        7.8250    -2.2920     0.5190 C.ar  1 <1>   0.0750 
 21 C        7.5560    -3.1050     2.7650 C.ar  1 <1>  -0.1570 
 22 O        7.5180    -1.3660    -0.4360 O.3   1 <1>  -0.3680 
 23 C        8.6930    -3.3480     0.2570 C.ar  1 <1>  -0.1570 
 24 C        8.4190    -4.1510     2.4970 C.ar  1 <1>  -0.1570 
 25 C        8.2880    -1.2300    -1.6120 C.3   1 <1>   0.1130 
 26 C        8.9870    -4.2720     1.2430 C.ar  1 <1>  -0.1570 
 27 C        7.7700    -0.0100    -2.3740 C.3   1 <1>  -0.1670 
 28 C        8.5490     0.1980    -3.6760 C.3   1 <1>  -0.2460 
 29 H        0.7470     3.5310     0.9670 H     1 <1>   0.0730 
 30 H        0.2530     3.0770    -0.6340 H     1 <1>   0.0730 
 31 H        4.2850    -0.8600    -2.4560 H     1 <1>   0.0730 
 32 H        2.9960     0.0110    -3.2390 H     1 <1>   0.0730 
 33 H        2.6190    -1.3730    -2.2380 H     1 <1>   0.0730 
 34 H        2.1100     4.4120    -1.5970 H     1 <1>   0.0730 
 35 H        2.6120     4.8720     0.0170 H     1 <1>   0.0730 
 36 H        5.3070    -1.4280    -0.4770 H     1 <1>   0.4450 
 37 H       -0.0650     5.5420    -1.2420 H     1 <1>   0.0730 
 38 H        1.2660     6.6500    -1.0210 H     1 <1>   0.0730 
 39 H        0.4360     6.0010     0.3710 H     1 <1>   0.0730 
 40 H        4.6130     0.6580     4.0580 H     1 <1>   0.0730 
 41 H        5.7780     1.7460     3.3000 H     1 <1>   0.0730 
 42 H        6.2580    -0.9670     4.2520 H     1 <1>   0.0730 
 43 H        7.4260     0.1160     3.5050 H     1 <1>   0.0730 
 44 H        7.1220    -3.0390     3.7450 H     1 <1>   0.1430 
 45 H        9.1530    -3.4800    -0.7050 H     1 <1>   0.1430 
 46 H        8.6500    -4.8750     3.2610 H     1 <1>   0.1430 
 47 H        8.1750    -2.1210    -2.2050 H     1 <1>   0.0730 
 48 H        9.3200    -1.0960    -1.3340 H     1 <1>   0.0730 
 49 H        9.6600    -5.0880     1.0350 H     1 <1>   0.1430 
 50 H        7.8780     0.8670    -1.7590 H     1 <1>   0.0730 
 51 H        6.7300    -0.1460    -2.6100 H     1 <1>   0.0730 
 52 H        9.5930     0.3550    -3.4710 H     1 <1>   0.0730 
 53 H        8.1720     1.0610    -4.1960 H     1 <1>   0.0730 
 54 H        8.4480    -0.6580    -4.3200 H     1 <1>   0.0730 
@<TRIPOS>BOND
  1   1   2  2   
  2   2   3  am  
  3   2   4  am  
  4   3   5  am  
  5   3   6  1   
  6   4   7  1   
  7   4   8  1   
  8   5   9  2   
  9   5  10  1   
 10   6  11  1   
 11   6  29  1   
 12   6  30  1   
 13   7  10  2   
 14   7  12  1   
 15   8  31  1   
 16   8  32  1   
 17   8  33  1   
 18  10  13  1   
 19  11  14  1   
 20  11  34  1   
 21  11  35  1   
 22  12  15  ar  
 23  12  36  1   
 24  13  15  ar  
 25  13  16  1   
 26  14  37  1   
 27  14  38  1   
 28  14  39  1   
 29  15  17  ar  
 30  16  18  1   
 31  16  40  1   
 32  16  41  1   
 33  17  18  1   
 34  17  19  1   
 35  18  42  1   
 36  18  43  1   
 37  19  20  ar  
 38  19  21  ar  
 39  20  22  1   
 40  20  23  ar  
 41  21  24  ar  
 42  21  44  1   
 43  22  25  1   
 44  23  26  ar  
 45  23  45  1   
 46  24  26  ar  
 47  24  46  1   
 48  25  27  1   
 49  25  47  1   
 50  25  48  1   
 51  26  49  1   
 52  27  28  1   
 53  27  50  1   
 54  27  51  1   
 55  28  52  1   
 56  28  53  1   
 57  28  54  1   
@<TRIPOS>SUBSTRUCTURE
  1 ****  12 GROUP 4 **** **** 0

# MOE 2024.06 (io_trps.svl 2023.06)
