@<TRIPOS>MOLECULE
N-[1-(5-Mercapto-4-methyl-4H-[1,2,4]triazol-3-yl)-ethyl]-4-methoxy-benzamide
36 37 1 0 0 
SMALL
USER_CHARGES


@<TRIPOS>ATOM
  1 S       -0.2420     0.9440     1.7690 S.3   1 <1>  -0.9360 
  2 C       -1.2080     2.1690     1.3230 C.cat 1 <1>   0.7360 
  3 N       -1.1370     3.3970     1.7790 N.pl3 1 <1>  -0.3930 
  4 N       -2.1890     2.1000     0.4430 N.pl3 1 <1>  -0.7640 
  5 N       -2.0920     4.1800     1.1990 N.2   1 <1>  -0.2600 
  6 C       -2.7220     3.3780     0.4100 C.2   1 <1>   0.4850 
  7 C       -2.5380     0.8450    -0.2590 C.3   1 <1>   0.2740 
  8 C       -3.9060     3.7650    -0.5120 C.3   1 <1>   0.3880 
  9 N       -4.1440     5.2340    -0.6360 N.am  1 <1>  -0.7300 
 10 C       -5.2200     3.0630    -0.1420 C.3   1 <1>  -0.2400 
 11 C       -4.5280     6.0880     0.3610 C.2   1 <1>   0.5440 
 12 O       -4.8290     5.6250     1.4420 O.2   1 <1>  -0.5700 
 13 C       -4.5920     7.5180     0.1240 C.ar  1 <1>   0.0860 
 14 C       -5.5060     8.3170     0.8140 C.ar  1 <1>  -0.1500 
 15 C       -3.7540     8.1560    -0.7940 C.ar  1 <1>  -0.1500 
 16 C       -5.5960     9.6790     0.5940 C.ar  1 <1>  -0.1500 
 17 C       -3.8400     9.5170    -1.0220 C.ar  1 <1>  -0.1500 
 18 C       -4.7600    10.2900    -0.3360 C.ar  1 <1>   0.0830 
 19 O       -4.7830    11.6120    -0.6170 O.3   1 <1>  -0.3620 
 20 C       -5.6670    12.4950     0.0370 C.3   1 <1>   0.0400 
 21 H       -0.4520     3.6640     2.4850 H     1 <1>   0.4500 
 22 H       -1.6400     0.3110    -0.5230 H     1 <1>   0.0800 
 23 H       -3.0900     1.0500    -1.1580 H     1 <1>   0.0800 
 24 H       -3.1260     0.2210     0.3920 H     1 <1>   0.0800 
 25 H       -3.6350     3.4210    -1.4940 H     1 <1>   0.0800 
 26 H       -3.9630     5.6260    -1.5600 H     1 <1>   0.3700 
 27 H       -5.4810     3.2650     0.8820 H     1 <1>   0.0800 
 28 H       -5.1240     2.0000    -0.2500 H     1 <1>   0.0800 
 29 H       -6.0170     3.3990    -0.7810 H     1 <1>   0.0800 
 30 H       -6.1550     7.8530     1.5380 H     1 <1>   0.1500 
 31 H       -3.0170     7.5880    -1.3320 H     1 <1>   0.1500 
 32 H       -6.3180    10.2460     1.1510 H     1 <1>   0.1500 
 33 H       -3.1900     9.9960    -1.7330 H     1 <1>   0.1500 
 34 H       -5.4950    13.4840    -0.3470 H     1 <1>   0.0800 
 35 H       -5.4640    12.4720     1.0930 H     1 <1>   0.0800 
 36 H       -6.6780    12.1930    -0.1680 H     1 <1>   0.0800 
@<TRIPOS>BOND
  1   1   2  1   
  2   2   3  ar  
  3   2   4  ar  
  4   3   5  1   
  5   3  21  1   
  6   4   6  1   
  7   4   7  1   
  8   5   6  2   
  9   6   8  1   
 10   7  22  1   
 11   7  23  1   
 12   7  24  1   
 13   8   9  1   
 14   8  10  1   
 15   8  25  1   
 16   9  11  am  
 17   9  26  1   
 18  10  27  1   
 19  10  28  1   
 20  10  29  1   
 21  11  12  2   
 22  11  13  1   
 23  13  14  ar  
 24  13  15  ar  
 25  14  16  ar  
 26  14  30  1   
 27  15  17  ar  
 28  15  31  1   
 29  16  18  ar  
 30  16  32  1   
 31  17  18  ar  
 32  17  33  1   
 33  18  19  1   
 34  19  20  1   
 35  20  34  1   
 36  20  35  1   
 37  20  36  1   
@<TRIPOS>SUBSTRUCTURE
  1 ****  11 GROUP 4 **** **** 0

# MOE 2024.06 (io_trps.svl 2023.06)
