@<TRIPOS>MOLECULE
N-{4-[4-(Acetylamino-methyl)-piperidine-1-sulfonyl]-phenyl}-acetamide
47 48 1 0 0 
SMALL
USER_CHARGES


@<TRIPOS>ATOM
  1 S        0.5440    -0.4400     2.2280 S.o2  1 <1>   1.4470 
  2 O        0.3340     0.7230     3.0650 O.2   1 <1>  -0.6500 
  3 O        1.1620    -1.6190     2.7950 O.2   1 <1>  -0.6500 
  4 N        1.5210     0.0620     0.9360 N.am  1 <1>  -0.8490 
  5 C       -1.0040    -0.9210     1.4120 C.ar  1 <1>  -0.0090 
  6 C        2.9200     0.1810     1.3520 C.3   1 <1>   0.1960 
  7 C        1.0480     1.3190     0.3470 C.3   1 <1>   0.1960 
  8 C       -2.1840    -0.2150     1.6160 C.ar  1 <1>  -0.1500 
  9 C       -1.0450    -2.0030     0.5420 C.ar  1 <1>  -0.1500 
 10 C        3.8110     0.4780     0.1420 C.3   1 <1>  -0.1600 
 11 C        1.8590     1.6460    -0.9090 C.3   1 <1>  -0.1600 
 12 C       -3.3560    -0.5740     0.9760 C.ar  1 <1>  -0.1500 
 13 C       -2.2160    -2.3660    -0.1010 C.ar  1 <1>  -0.1500 
 14 C        3.3590     1.7510    -0.5940 C.3   1 <1>  -0.0800 
 15 C       -3.3910    -1.6550     0.1020 C.ar  1 <1>   0.1170 
 16 C        4.1570     2.0020    -1.8820 C.3   1 <1>   0.1400 
 17 N       -4.5550    -2.0630    -0.5660 N.am  1 <1>  -0.5470 
 18 N        5.5930     2.1920    -1.5730 N.am  1 <1>  -0.7300 
 19 C       -5.6890    -1.3710    -0.8840 C.2   1 <1>   0.5690 
 20 C        6.1990     3.3970    -1.4530 C.2   1 <1>   0.5690 
 21 O       -5.8610    -0.2040    -0.6430 O.2   1 <1>  -0.5700 
 22 C       -6.7830    -2.1270    -1.5940 C.3   1 <1>  -0.1790 
 23 O        5.6060     4.4390    -1.5820 O.2   1 <1>  -0.5700 
 24 C        7.6710     3.4220    -1.1380 C.3   1 <1>  -0.1790 
 25 H        3.2480    -0.7440     1.8000 H     1 <1>   0.0800 
 26 H        3.0190     0.9630     2.0890 H     1 <1>   0.0800 
 27 H        1.1400     2.1220     1.0620 H     1 <1>   0.0800 
 28 H        0.0090     1.2280     0.0760 H     1 <1>   0.0800 
 29 H       -2.1880     0.6280     2.2880 H     1 <1>   0.1500 
 30 H       -0.1430    -2.5660     0.3680 H     1 <1>   0.1500 
 31 H        3.7770    -0.3670    -0.5230 H     1 <1>   0.0800 
 32 H        4.8240     0.5900     0.4840 H     1 <1>   0.0800 
 33 H        1.5090     2.5770    -1.3180 H     1 <1>   0.0800 
 34 H        1.6840     0.8760    -1.6400 H     1 <1>   0.0800 
 35 H       -4.2500    -0.0070     1.1640 H     1 <1>   0.1500 
 36 H       -2.2100    -3.2090    -0.7680 H     1 <1>   0.1500 
 37 H        3.5030     2.5990     0.0550 H     1 <1>   0.0800 
 38 H        3.7810     2.8860    -2.3700 H     1 <1>   0.0800 
 39 H        4.0450     1.1740    -2.5600 H     1 <1>   0.0800 
 40 H       -4.5360    -3.0240    -0.9010 H     1 <1>   0.3700 
 41 H        6.1340     1.3390    -1.4300 H     1 <1>   0.3700 
 42 H       -7.0920    -2.9680    -1.0030 H     1 <1>   0.0800 
 43 H       -6.4320    -2.4650    -2.5510 H     1 <1>   0.0800 
 44 H       -7.6290    -1.4810    -1.7450 H     1 <1>   0.0800 
 45 H        7.8470     2.9490    -0.1910 H     1 <1>   0.0800 
 46 H        8.0130     4.4390    -1.0890 H     1 <1>   0.0800 
 47 H        8.2160     2.9080    -1.9070 H     1 <1>   0.0800 
@<TRIPOS>BOND
  1   1   2  2   
  2   1   3  2   
  3   1   4  am  
  4   1   5  1   
  5   4   6  1   
  6   4   7  1   
  7   5   8  ar  
  8   5   9  ar  
  9   6  10  1   
 10   6  25  1   
 11   6  26  1   
 12   7  11  1   
 13   7  27  1   
 14   7  28  1   
 15   8  12  ar  
 16   8  29  1   
 17   9  13  ar  
 18   9  30  1   
 19  10  14  1   
 20  10  31  1   
 21  10  32  1   
 22  11  14  1   
 23  11  33  1   
 24  11  34  1   
 25  12  15  ar  
 26  12  35  1   
 27  13  15  ar  
 28  13  36  1   
 29  14  16  1   
 30  14  37  1   
 31  15  17  1   
 32  16  18  1   
 33  16  38  1   
 34  16  39  1   
 35  17  19  am  
 36  17  40  1   
 37  18  20  am  
 38  18  41  1   
 39  19  21  2   
 40  19  22  1   
 41  20  23  2   
 42  20  24  1   
 43  22  42  1   
 44  22  43  1   
 45  22  44  1   
 46  24  45  1   
 47  24  46  1   
 48  24  47  1   
@<TRIPOS>SUBSTRUCTURE
  1 ****   7 GROUP 4 **** **** 0

# MOE 2024.06 (io_trps.svl 2023.06)
