@<TRIPOS>MOLECULE
2-[2-(5-Propyl-[1,3,4]oxadiazol-2-ylsulfanyl)-acetylamino]-benzoic acid methyl e
40 41 1 0 0 
SMALL
USER_CHARGES


@<TRIPOS>ATOM
  1 S       -1.3270     1.5330    -0.5320 S.3   1 <1>  -0.2860 
  2 C        0.4190     1.8760    -0.3770 C.2   1 <1>   0.5340 
  3 C       -1.3520    -0.2900    -0.8880 C.3   1 <1>   0.1310 
  4 O        0.8010     3.0830    -0.1340 O.3   1 <1>  -0.2800 
  5 N        1.3680     1.0310    -0.4790 N.2   1 <1>  -0.3380 
  6 C       -2.7750    -0.8190    -0.9740 C.2   1 <1>   0.5690 
  7 C        2.0910     2.9590    -0.0870 C.2   1 <1>   0.2980 
  8 N        2.4770     1.7500    -0.2860 N.2   1 <1>  -0.3380 
  9 O       -2.9780    -1.7660    -1.6920 O.2   1 <1>  -0.5700 
 10 N       -3.7540    -0.2040    -0.2360 N.am  1 <1>  -0.5470 
 11 C        2.9390     4.1920     0.1840 C.3   1 <1>   0.0200 
 12 C       -5.1250    -0.4690    -0.0740 C.ar  1 <1>   0.1170 
 13 C        4.4480     3.8990     0.2110 C.3   1 <1>  -0.1600 
 14 C       -6.0210     0.5530     0.3080 C.ar  1 <1>   0.0860 
 15 C       -5.6170    -1.7570    -0.2820 C.ar  1 <1>  -0.1500 
 16 C        5.2660     5.1660     0.4870 C.3   1 <1>  -0.2400 
 17 C       -5.6160     1.9190     0.5760 C.2   1 <1>   0.6340 
 18 C       -7.3760     0.2250     0.4260 C.ar  1 <1>  -0.1500 
 19 C       -6.9580    -2.0510    -0.1480 C.ar  1 <1>  -0.1500 
 20 O       -6.3670     2.8650     0.4500 O.2   1 <1>  -0.5700 
 21 O       -4.3690     2.1580     1.0070 O.3   1 <1>  -0.4300 
 22 C       -7.8440    -1.0520     0.2050 C.ar  1 <1>  -0.1500 
 23 C       -3.9170     3.4680     1.2960 C.3   1 <1>   0.0400 
 24 H       -0.8180    -0.7810    -0.0960 H     1 <1>   0.0800 
 25 H       -0.8400    -0.4390    -1.8210 H     1 <1>   0.0800 
 26 H       -3.4460     0.6690     0.2090 H     1 <1>   0.3700 
 27 H        2.6390     4.6080     1.1290 H     1 <1>   0.0800 
 28 H        2.7310     4.9190    -0.5810 H     1 <1>   0.0800 
 29 H        4.7490     3.4810    -0.7350 H     1 <1>   0.0800 
 30 H        4.6570     3.1680     0.9750 H     1 <1>   0.0800 
 31 H       -4.9470    -2.5520    -0.5530 H     1 <1>   0.1500 
 32 H        5.0940     5.9020    -0.2790 H     1 <1>   0.0800 
 33 H        6.3150     4.9280     0.4990 H     1 <1>   0.0800 
 34 H        5.0020     5.5870     1.4410 H     1 <1>   0.0800 
 35 H       -8.0770     0.9960     0.7010 H     1 <1>   0.1500 
 36 H       -7.3130    -3.0540    -0.3200 H     1 <1>   0.1500 
 37 H       -8.8940    -1.2740     0.3050 H     1 <1>   0.1500 
 38 H       -4.5340     3.8850     2.0730 H     1 <1>   0.0800 
 39 H       -3.9890     4.0650     0.4040 H     1 <1>   0.0800 
 40 H       -2.8940     3.4130     1.6240 H     1 <1>   0.0800 
@<TRIPOS>BOND
  1   1   2  1   
  2   1   3  1   
  3   2   4  1   
  4   2   5  2   
  5   3   6  1   
  6   3  24  1   
  7   3  25  1   
  8   4   7  1   
  9   5   8  1   
 10   6   9  2   
 11   6  10  am  
 12   7   8  2   
 13   7  11  1   
 14  10  12  1   
 15  10  26  1   
 16  11  13  1   
 17  11  27  1   
 18  11  28  1   
 19  12  14  ar  
 20  12  15  ar  
 21  13  16  1   
 22  13  29  1   
 23  13  30  1   
 24  14  17  1   
 25  14  18  ar  
 26  15  19  ar  
 27  15  31  1   
 28  16  32  1   
 29  16  33  1   
 30  16  34  1   
 31  17  20  2   
 32  17  21  1   
 33  18  22  ar  
 34  18  35  1   
 35  19  22  ar  
 36  19  36  1   
 37  21  23  1   
 38  22  37  1   
 39  23  38  1   
 40  23  39  1   
 41  23  40  1   
@<TRIPOS>SUBSTRUCTURE
  1 ****   1 GROUP 4 **** **** 0

# MOE 2024.06 (io_trps.svl 2023.06)
