@<TRIPOS>MOLECULE
Ethanesulfonic acid [4-(4-methyl-piperazine-1-carbonyl)-phenyl]-amide
43 44 1 0 0 
SMALL
USER_CHARGES


@<TRIPOS>ATOM
  1 S       -0.1290     0.8170     0.4140 S.o2  1 <1>   1.3330 
  2 O        0.1220     2.1070    -0.1800 O.2   1 <1>  -0.6500 
  3 O       -1.2610     0.5940     1.2760 O.2   1 <1>  -0.6500 
  4 N        1.2160     0.4220     1.4060 N.am  1 <1>  -0.7570 
  5 C       -0.0740    -0.4740    -0.8360 C.3   1 <1>  -0.0550 
  6 C        2.5680     0.6510     1.2170 C.ar  1 <1>   0.1990 
  7 C       -1.2110    -0.4040    -1.8720 C.3   1 <1>  -0.2400 
  8 C        3.4540     0.3060     2.2310 C.ar  1 <1>  -0.1500 
  9 C        3.1000     1.2100     0.0580 C.ar  1 <1>  -0.1500 
 10 C        4.8130     0.5060     2.0920 C.ar  1 <1>  -0.1500 
 11 C        4.4600     1.4100    -0.0780 C.ar  1 <1>  -0.1500 
 12 C        5.3600     1.0590     0.9320 C.ar  1 <1>   0.0860 
 13 C        6.7920     1.2600     0.7970 C.2   1 <1>   0.5440 
 14 O        7.5340     1.2030     1.7600 O.2   1 <1>  -0.5700 
 15 N        7.3900     1.4650    -0.4250 N.am  1 <1>  -0.6600 
 16 C        8.5730     2.3730    -0.4840 C.3   1 <1>   0.1400 
 17 C        7.4940     0.3050    -1.3530 C.3   1 <1>   0.1400 
 18 C        9.8650     1.5830    -0.1940 C.3   1 <1>   0.3430 
 19 C        8.7940    -0.4820    -1.0770 C.3   1 <1>   0.3430 
 20 N       10.0220     0.3960    -1.1130 N.4   1 <1>  -0.9590 
 21 C       11.2410    -0.3860    -0.7480 C.3   1 <1>   0.2630 
 22 H        0.8840     0.1980     2.3400 H     1 <1>   0.4200 
 23 H       -0.1160    -1.4290    -0.3490 H     1 <1>   0.0800 
 24 H        0.8630    -0.4170    -1.3550 H     1 <1>   0.0800 
 25 H       -2.1650    -0.4880    -1.3800 H     1 <1>   0.0800 
 26 H       -1.1160    -1.2030    -2.5850 H     1 <1>   0.0800 
 27 H       -1.1770     0.5360    -2.3960 H     1 <1>   0.0800 
 28 H        3.0720    -0.1220     3.1400 H     1 <1>   0.1500 
 29 H        2.4520     1.5070    -0.7450 H     1 <1>   0.1500 
 30 H        5.4710     0.2330     2.9000 H     1 <1>   0.1500 
 31 H        4.8310     1.8600    -0.9820 H     1 <1>   0.1500 
 32 H        8.4630     3.1520     0.2520 H     1 <1>   0.0800 
 33 H        8.6270     2.8390    -1.4520 H     1 <1>   0.0800 
 34 H        7.4800     0.6550    -2.3710 H     1 <1>   0.0800 
 35 H        6.6480    -0.3480    -1.2170 H     1 <1>   0.0800 
 36 H        9.8240     1.2460     0.8300 H     1 <1>   0.0800 
 37 H       10.7130     2.2410    -0.2910 H     1 <1>   0.0800 
 38 H        8.8880    -1.2750    -1.8000 H     1 <1>   0.0800 
 39 H        8.7090    -0.9330    -0.1010 H     1 <1>   0.0800 
 40 H       10.1290     0.7540    -2.0730 H     1 <1>   0.4500 
 41 H       11.1540    -0.7660     0.2580 H     1 <1>   0.0800 
 42 H       12.1180     0.2380    -0.8050 H     1 <1>   0.0800 
 43 H       11.3690    -1.2190    -1.4210 H     1 <1>   0.0800 
@<TRIPOS>BOND
  1   1   2  2   
  2   1   3  2   
  3   1   4  am  
  4   1   5  1   
  5   4   6  1   
  6   4  22  1   
  7   5   7  1   
  8   5  23  1   
  9   5  24  1   
 10   6   8  ar  
 11   6   9  ar  
 12   7  25  1   
 13   7  26  1   
 14   7  27  1   
 15   8  10  ar  
 16   8  28  1   
 17   9  11  ar  
 18   9  29  1   
 19  10  12  ar  
 20  10  30  1   
 21  11  12  ar  
 22  11  31  1   
 23  12  13  1   
 24  13  14  2   
 25  13  15  am  
 26  15  16  1   
 27  15  17  1   
 28  16  18  1   
 29  16  32  1   
 30  16  33  1   
 31  17  19  1   
 32  17  34  1   
 33  17  35  1   
 34  18  20  1   
 35  18  36  1   
 36  18  37  1   
 37  19  20  1   
 38  19  38  1   
 39  19  39  1   
 40  20  21  1   
 41  20  40  1   
 42  21  41  1   
 43  21  42  1   
 44  21  43  1   
@<TRIPOS>SUBSTRUCTURE
  1 ****  11 GROUP 4 **** **** 0

# MOE 2024.06 (io_trps.svl 2023.06)
