@<TRIPOS>MOLECULE
4-(3,4-Dimethoxy-phenyl)-2,7-dimethyl-5-oxo-1,4,5,6,7,8-hexahydro-quinoline-3-ca
62 65 1 0 0 
SMALL
USER_CHARGES


@<TRIPOS>ATOM
  1 O        0.5710    -0.7590    -1.8310 O.2   1 <1>  -0.5700 
  2 C        0.5760    -1.5850    -0.9500 C.2   1 <1>   0.4950 
  3 C        1.7460    -2.2190    -0.4420 C.2   1 <1>  -0.1240 
  4 C       -0.7740    -2.0110    -0.3960 C.3   1 <1>  -0.0990 
  5 C        1.7140    -3.2360     0.4560 C.2   1 <1>  -0.0380 
  6 C        3.0900    -1.7110    -0.9700 C.3   1 <1>   0.3400 
  7 C       -0.6650    -2.6180     1.0150 C.3   1 <1>  -0.0800 
  8 N        2.8530    -3.8940     0.8530 N.pl3 1 <1>  -0.6000 
  9 C        0.4050    -3.7230     1.0590 C.3   1 <1>  -0.0220 
 10 C        4.2760    -2.5830    -0.5460 C.2   1 <1>  -0.1240 
 11 C        3.3470    -0.2960    -0.4430 C.ar  1 <1>  -0.1440 
 12 C       -2.0250    -3.1480     1.4900 C.3   1 <1>  -0.2400 
 13 C        4.0950    -3.6090     0.3280 C.2   1 <1>  -0.0380 
 14 C        5.5080    -2.1440    -1.1160 C.2   1 <1>   0.6160 
 15 C        3.6610    -0.0950     0.8950 C.ar  1 <1>  -0.1500 
 16 C        3.3050     0.7980    -1.2970 C.ar  1 <1>  -0.1500 
 17 C        5.1950    -4.5390     0.8140 C.3   1 <1>  -0.1020 
 18 O        5.6420    -2.0570    -2.3210 O.2   1 <1>  -0.5700 
 19 N        6.5190    -1.7850    -0.2660 N.am  1 <1>  -0.5470 
 20 C        3.9680     1.1680     1.3680 C.ar  1 <1>   0.0830 
 21 C        3.5760     2.0710    -0.8230 C.ar  1 <1>  -0.1500 
 22 C        7.7520    -1.2020    -0.4350 C.ar  1 <1>   0.4270 
 23 O        4.3580     1.2720     2.6610 O.3   1 <1>  -0.3620 
 24 C        3.8970     2.2690     0.5080 C.ar  1 <1>   0.0830 
 25 N        8.3050    -0.8530     0.7180 N.ar  1 <1>  -0.6200 
 26 C        8.3670    -0.9980    -1.6690 C.ar  1 <1>  -0.1500 
 27 C        5.7270     1.5590     2.8520 C.3   1 <1>   0.0400 
 28 O        4.1330     3.5420     0.9140 O.3   1 <1>  -0.3630 
 29 C        9.4960    -0.2810     0.6390 C.ar  1 <1>   0.1600 
 30 C        9.6050    -0.4020    -1.7320 C.ar  1 <1>  -0.1500 
 31 C        3.2610     4.0640     1.8920 C.3   1 <1>   0.0400 
 32 C       10.1860    -0.0310    -0.5370 C.ar  1 <1>  -0.1430 
 33 C       11.5510     0.6340    -0.5340 C.3   1 <1>  -0.0970 
 34 H       -1.1990    -2.7270    -1.0750 H     1 <1>   0.0800 
 35 H       -1.4220    -1.1530    -0.3700 H     1 <1>   0.0800 
 36 H        3.0460    -1.6990    -2.0450 H     1 <1>   0.0800 
 37 H       -0.3550    -1.8340     1.6870 H     1 <1>   0.0800 
 38 H        2.7720    -4.6670     1.5240 H     1 <1>   0.4000 
 39 H        0.5650    -4.0090     2.0840 H     1 <1>   0.0800 
 40 H        0.0730    -4.5900     0.5140 H     1 <1>   0.0800 
 41 H       -2.3760    -3.9350     0.8450 H     1 <1>   0.0800 
 42 H       -2.7540    -2.3560     1.4900 H     1 <1>   0.0800 
 43 H       -1.9480    -3.5330     2.4910 H     1 <1>   0.0800 
 44 H        3.6890    -0.9230     1.5810 H     1 <1>   0.1500 
 45 H        3.0570     0.6630    -2.3360 H     1 <1>   0.1500 
 46 H        4.8990    -5.5620     0.6630 H     1 <1>   0.0800 
 47 H        5.3750    -4.3800     1.8620 H     1 <1>   0.0800 
 48 H        6.1150    -4.3860     0.2800 H     1 <1>   0.0800 
 49 H        6.2650    -1.8030     0.7160 H     1 <1>   0.3700 
 50 H        3.5360     2.9150    -1.4870 H     1 <1>   0.1500 
 51 H        7.8810    -1.3030    -2.5750 H     1 <1>   0.1500 
 52 H        5.9320     1.5370     3.9070 H     1 <1>   0.0800 
 53 H        5.9420     2.5340     2.4550 H     1 <1>   0.0800 
 54 H        6.3140     0.8130     2.3440 H     1 <1>   0.0800 
 55 H        9.9500     0.0070     1.5720 H     1 <1>   0.1500 
 56 H       10.0940    -0.2340    -2.6760 H     1 <1>   0.1500 
 57 H        3.4550     5.1160     1.9870 H     1 <1>   0.0800 
 58 H        3.4420     3.5730     2.8300 H     1 <1>   0.0800 
 59 H        2.2460     3.9010     1.5740 H     1 <1>   0.0800 
 60 H       12.2810    -0.0260    -0.9670 H     1 <1>   0.0800 
 61 H       11.8600     0.8780     0.4670 H     1 <1>   0.0800 
 62 H       11.5170     1.5410    -1.1110 H     1 <1>   0.0800 
@<TRIPOS>BOND
  1   1   2  2   
  2   2   3  1   
  3   2   4  1   
  4   3   5  2   
  5   3   6  1   
  6   4   7  1   
  7   4  34  1   
  8   4  35  1   
  9   5   8  1   
 10   5   9  1   
 11   6  10  1   
 12   6  11  1   
 13   6  36  1   
 14   7   9  1   
 15   7  12  1   
 16   7  37  1   
 17   8  13  1   
 18   8  38  1   
 19   9  39  1   
 20   9  40  1   
 21  10  13  2   
 22  10  14  1   
 23  11  15  ar  
 24  11  16  ar  
 25  12  41  1   
 26  12  42  1   
 27  12  43  1   
 28  13  17  1   
 29  14  18  2   
 30  14  19  am  
 31  15  20  ar  
 32  15  44  1   
 33  16  21  ar  
 34  16  45  1   
 35  17  46  1   
 36  17  47  1   
 37  17  48  1   
 38  19  22  1   
 39  19  49  1   
 40  20  23  1   
 41  20  24  ar  
 42  21  24  ar  
 43  21  50  1   
 44  22  25  ar  
 45  22  26  ar  
 46  23  27  1   
 47  24  28  1   
 48  25  29  ar  
 49  26  30  ar  
 50  26  51  1   
 51  27  52  1   
 52  27  53  1   
 53  27  54  1   
 54  28  31  1   
 55  29  32  ar  
 56  29  55  1   
 57  30  32  ar  
 58  30  56  1   
 59  31  57  1   
 60  31  58  1   
 61  31  59  1   
 62  32  33  1   
 63  33  60  1   
 64  33  61  1   
 65  33  62  1   
@<TRIPOS>SUBSTRUCTURE
  1 ****  11 GROUP 4 **** **** 0

# MOE 2024.06 (io_trps.svl 2023.06)
