@<TRIPOS>MOLECULE
1-(2,5-Dimethoxy-benzenesulfonyl)-pyrrolidine-2-carboxylic acid (1-phenyl-ethyl)
55 57 1 0 0 
SMALL
USER_CHARGES


@<TRIPOS>ATOM
  1 S        0.3740     0.1100     1.2870 S.o2  1 <1>   1.4470 
  2 O       -0.5960     0.9900     1.8990 O.2   1 <1>  -0.6500 
  3 O        1.3370    -0.5170     2.1700 O.2   1 <1>  -0.6500 
  4 N        1.2870     1.0440     0.2100 N.am  1 <1>  -0.8490 
  5 C       -0.4010    -1.1480     0.2380 C.ar  1 <1>  -0.0090 
  6 C        1.9620     0.3970    -0.9330 C.3   1 <1>   0.3370 
  7 C        2.1800     2.0260     0.8040 C.3   1 <1>   0.1960 
  8 C       -1.4840    -0.8500    -0.5840 C.ar  1 <1>   0.0820 
  9 C        0.1090    -2.4410     0.1960 C.ar  1 <1>  -0.1500 
 10 C        2.9230    -0.7980    -0.6850 C.2   1 <1>   0.5690 
 11 C        2.7450     1.5710    -1.5170 C.3   1 <1>  -0.1600 
 12 C        3.1720     2.3910    -0.2990 C.3   1 <1>  -0.1600 
 13 O       -1.9730     0.4050    -0.6350 O.3   1 <1>  -0.3630 
 14 C       -2.0550    -1.8150    -1.4010 C.ar  1 <1>  -0.1500 
 15 C       -0.4410    -3.4070    -0.6380 C.ar  1 <1>   0.0820 
 16 O        3.1830    -1.5100    -1.6260 O.2   1 <1>  -0.5700 
 17 N        3.4720    -1.0070     0.5430 N.am  1 <1>  -0.7300 
 18 C       -3.1890     0.6360     0.0400 C.3   1 <1>   0.0400 
 19 C       -1.5360    -3.0940    -1.4230 C.ar  1 <1>  -0.1500 
 20 O        0.0580    -4.6620    -0.7370 O.3   1 <1>  -0.3620 
 21 C        4.7220    -1.6850     0.9240 C.3   1 <1>   0.3640 
 22 C        1.4410    -4.8750    -0.5450 C.3   1 <1>   0.0400 
 23 C        5.8990    -0.7670     0.6080 C.ar  1 <1>  -0.1430 
 24 C        4.8560    -3.0780     0.3100 C.3   1 <1>  -0.2400 
 25 C        6.6150    -0.1840     1.6450 C.ar  1 <1>  -0.1500 
 26 C        6.2700    -0.4880    -0.7010 C.ar  1 <1>  -0.1500 
 27 C        7.6800     0.6590     1.3790 C.ar  1 <1>  -0.1500 
 28 C        7.3340     0.3540    -0.9700 C.ar  1 <1>  -0.1500 
 29 C        8.0410     0.9290     0.0710 C.ar  1 <1>  -0.1500 
 30 H        1.2240     0.0740    -1.6470 H     1 <1>   0.0800 
 31 H        2.7030     1.6090     1.6490 H     1 <1>   0.0800 
 32 H        1.6130     2.8840     1.1270 H     1 <1>   0.0800 
 33 H        0.9470    -2.6880     0.8220 H     1 <1>   0.1500 
 34 H        2.0820     2.1520    -2.1340 H     1 <1>   0.0800 
 35 H        3.5830     1.2510    -2.1130 H     1 <1>   0.0800 
 36 H        4.1660     2.1120     0.0100 H     1 <1>   0.0800 
 37 H        3.1570     3.4470    -0.5060 H     1 <1>   0.0800 
 38 H       -2.8930    -1.5580    -2.0250 H     1 <1>   0.1500 
 39 H        3.0310    -0.5180     1.3320 H     1 <1>   0.3700 
 40 H       -3.4230     1.6820    -0.0390 H     1 <1>   0.0800 
 41 H       -3.0700     0.3680     1.0760 H     1 <1>   0.0800 
 42 H       -3.9650     0.0470    -0.4160 H     1 <1>   0.0800 
 43 H       -1.9650    -3.8520    -2.0550 H     1 <1>   0.1500 
 44 H        4.6850    -1.8230     1.9920 H     1 <1>   0.0800 
 45 H        1.6800    -5.8610    -0.8990 H     1 <1>   0.0800 
 46 H        1.6650    -4.8000     0.5040 H     1 <1>   0.0800 
 47 H        1.9910    -4.1400    -1.1090 H     1 <1>   0.0800 
 48 H        4.9650    -3.0310    -0.7560 H     1 <1>   0.0800 
 49 H        3.9960    -3.6720     0.5570 H     1 <1>   0.0800 
 50 H        5.7300    -3.5580     0.7100 H     1 <1>   0.0800 
 51 H        6.3490    -0.3800     2.6690 H     1 <1>   0.1500 
 52 H        5.7270    -0.9270    -1.5220 H     1 <1>   0.1500 
 53 H        8.2300     1.1060     2.1890 H     1 <1>   0.1500 
 54 H        7.6120     0.5600    -1.9890 H     1 <1>   0.1500 
 55 H        8.8700     1.5830    -0.1370 H     1 <1>   0.1500 
@<TRIPOS>BOND
  1   1   2  2   
  2   1   3  2   
  3   1   4  am  
  4   1   5  1   
  5   4   6  1   
  6   4   7  1   
  7   5   8  ar  
  8   5   9  ar  
  9   6  10  1   
 10   6  11  1   
 11   6  30  1   
 12   7  12  1   
 13   7  31  1   
 14   7  32  1   
 15   8  13  1   
 16   8  14  ar  
 17   9  15  ar  
 18   9  33  1   
 19  10  16  2   
 20  10  17  am  
 21  11  12  1   
 22  11  34  1   
 23  11  35  1   
 24  12  36  1   
 25  12  37  1   
 26  13  18  1   
 27  14  19  ar  
 28  14  38  1   
 29  15  19  ar  
 30  15  20  1   
 31  17  21  1   
 32  17  39  1   
 33  18  40  1   
 34  18  41  1   
 35  18  42  1   
 36  19  43  1   
 37  20  22  1   
 38  21  23  1   
 39  21  24  1   
 40  21  44  1   
 41  22  45  1   
 42  22  46  1   
 43  22  47  1   
 44  23  25  ar  
 45  23  26  ar  
 46  24  48  1   
 47  24  49  1   
 48  24  50  1   
 49  25  27  ar  
 50  25  51  1   
 51  26  28  ar  
 52  26  52  1   
 53  27  29  ar  
 54  27  53  1   
 55  28  29  ar  
 56  28  54  1   
 57  29  55  1   
@<TRIPOS>SUBSTRUCTURE
  1 ****  10 GROUP 4 **** **** 0

# MOE 2024.06 (io_trps.svl 2023.06)
