@<TRIPOS>MOLECULE
2-(5-Bromo-2-ethoxy-phenyl)-5,7-dimethyl-1,3-diaza-tricyclo[3.3.1.1*3,7*]decan-6
49 52 1 0 0 
SMALL
USER_CHARGES


@<TRIPOS>ATOM
  1 BR       0.8030     2.1280     4.7330 Br    1 <1>  -0.1110 
  2 C        1.4730     2.9070     3.1060 C.ar  1 <1>   0.1110 
  3 C        0.5820     3.5150     2.2460 C.ar  1 <1>  -0.1500 
  4 C        2.8240     2.8370     2.8420 C.ar  1 <1>  -0.1500 
  5 C        1.0470     4.1030     1.0710 C.ar  1 <1>  -0.1440 
  6 C        3.2920     3.3880     1.6640 C.ar  1 <1>  -0.1500 
  7 C        2.4120     4.0060     0.7720 C.ar  1 <1>   0.0820 
  8 C        0.0790     4.7900     0.0950 C.3   1 <1>   0.8360 
  9 O        2.8460     4.5130    -0.4160 O.3   1 <1>  -0.3630 
 10 N        0.6210     6.0590    -0.4260 N.4   1 <1>  -0.9590 
 11 N       -1.2410     5.1180     0.6550 N.3   1 <1>  -0.8100 
 12 C        4.1350     4.2300    -0.9200 C.3   1 <1>   0.1200 
 13 C       -0.2160     6.5390    -1.5620 C.3   1 <1>   0.3430 
 14 C        0.7540     7.0860     0.6490 C.3   1 <1>   0.3430 
 15 C       -2.1700     5.5590    -0.4070 C.3   1 <1>   0.1100 
 16 C       -1.2210     6.1330     1.7360 C.3   1 <1>   0.1100 
 17 C        4.2320     4.8270    -2.3210 C.3   1 <1>  -0.2400 
 18 C       -1.6330     6.8510    -1.0580 C.3   1 <1>   0.0000 
 19 C       -0.6340     7.4480     1.1990 C.3   1 <1>   0.0000 
 20 C       -1.5070     7.9560     0.0230 C.3   1 <1>   0.2000 
 21 C       -2.5250     7.2830    -2.2380 C.3   1 <1>  -0.2400 
 22 C       -0.5000     8.4910     2.3270 C.3   1 <1>  -0.2400 
 23 O       -2.7710     8.3090     0.4790 O.3   1 <1>  -0.6800 
 24 H       -0.4620     3.5120     2.5070 H     1 <1>   0.1500 
 25 H        3.4880     2.3570     3.5400 H     1 <1>   0.1500 
 26 H        4.3450     3.3190     1.4650 H     1 <1>   0.1500 
 27 H       -0.0690     4.1070    -0.7280 H     1 <1>   0.0800 
 28 H        1.5640     5.7880    -0.7430 H     1 <1>   0.4500 
 29 H        4.2650     3.1610    -0.9530 H     1 <1>   0.0800 
 30 H        4.8680     4.6740    -0.2680 H     1 <1>   0.0800 
 31 H        0.2190     7.4260    -1.9930 H     1 <1>   0.0800 
 32 H       -0.2660     5.7810    -2.3270 H     1 <1>   0.0800 
 33 H        1.2300     7.9700     0.2560 H     1 <1>   0.0800 
 34 H        1.3660     6.6990     1.4470 H     1 <1>   0.0800 
 35 H       -3.1460     5.7370     0.0170 H     1 <1>   0.0800 
 36 H       -2.2760     4.7790    -1.1430 H     1 <1>   0.0800 
 37 H       -2.2250     6.2930     2.0950 H     1 <1>   0.0800 
 38 H       -0.6370     5.7850     2.5700 H     1 <1>   0.0800 
 39 H        3.4940     4.3880    -2.9680 H     1 <1>   0.0800 
 40 H        5.2040     4.6190    -2.7310 H     1 <1>   0.0800 
 41 H        4.1040     5.8940    -2.2860 H     1 <1>   0.0800 
 42 H       -1.0700     8.8410    -0.4090 H     1 <1>   0.0800 
 43 H       -2.5590     6.5210    -2.9960 H     1 <1>   0.0800 
 44 H       -2.1600     8.1940    -2.6800 H     1 <1>   0.0800 
 45 H       -3.5330     7.4600    -1.9000 H     1 <1>   0.0800 
 46 H        0.1660     8.1360     3.0950 H     1 <1>   0.0800 
 47 H       -1.4550     8.6820     2.7850 H     1 <1>   0.0800 
 48 H       -0.1130     9.4200     1.9460 H     1 <1>   0.0800 
 49 H       -2.7260     9.0570     1.1070 H     1 <1>   0.4000 
@<TRIPOS>BOND
  1   1   2  1   
  2   2   3  ar  
  3   2   4  ar  
  4   3   5  ar  
  5   3  24  1   
  6   4   6  ar  
  7   4  25  1   
  8   5   7  ar  
  9   5   8  1   
 10   6   7  ar  
 11   6  26  1   
 12   7   9  1   
 13   8  10  1   
 14   8  11  1   
 15   8  27  1   
 16   9  12  1   
 17  10  13  1   
 18  10  14  1   
 19  10  28  1   
 20  11  15  1   
 21  11  16  1   
 22  12  17  1   
 23  12  29  1   
 24  12  30  1   
 25  13  18  1   
 26  13  31  1   
 27  13  32  1   
 28  14  19  1   
 29  14  33  1   
 30  14  34  1   
 31  15  18  1   
 32  15  35  1   
 33  15  36  1   
 34  16  19  1   
 35  16  37  1   
 36  16  38  1   
 37  17  39  1   
 38  17  40  1   
 39  17  41  1   
 40  18  20  1   
 41  18  21  1   
 42  19  20  1   
 43  19  22  1   
 44  20  23  1   
 45  20  42  1   
 46  21  43  1   
 47  21  44  1   
 48  21  45  1   
 49  22  46  1   
 50  22  47  1   
 51  22  48  1   
 52  23  49  1   
@<TRIPOS>SUBSTRUCTURE
  1 ****   8 GROUP 4 **** **** 0

# MOE 2024.06 (io_trps.svl 2023.06)
