@<TRIPOS>MOLECULE
Adamantane-1-carboxylic acid [3-(4-chloro-phenyl)-[1,2,4]oxadiazol-5-ylmethyl]-a
48 52 1 0 0 
SMALL
USER_CHARGES


@<TRIPOS>ATOM
  1 CL      -1.7550     1.3940    -1.5430 Cl    1 <1>  -0.1770 
  2 C       -3.3340     1.0350    -0.8970 C.ar  1 <1>   0.1770 
  3 C       -3.8050     1.7490     0.1870 C.ar  1 <1>  -0.1500 
  4 C       -4.0970     0.0400    -1.4770 C.ar  1 <1>  -0.1500 
  5 C       -5.0600     1.4590     0.6950 C.ar  1 <1>  -0.1500 
  6 C       -5.3500    -0.2410    -0.9600 C.ar  1 <1>  -0.1500 
  7 C       -5.8640     0.4590     0.1370 C.ar  1 <1>   0.0540 
  8 C       -7.1810     0.1660     0.6790 C.2   1 <1>   0.4620 
  9 N       -7.7260     0.7550     1.6850 N.2   1 <1>  -0.4100 
 10 N       -7.9820    -0.7740     0.1660 N.2   1 <1>  -0.5650 
 11 O       -8.8960     0.2290     1.8710 O.3   1 <1>  -0.0190 
 12 C       -8.9900    -0.6770     0.9330 C.2   1 <1>   0.2980 
 13 C      -10.2660    -1.4990     0.8450 C.3   1 <1>   0.3200 
 14 N      -11.3860    -0.6880     0.3020 N.am  1 <1>  -0.7300 
 15 C      -12.6160    -0.5980     0.8690 C.2   1 <1>   0.5690 
 16 O      -12.8820    -1.2580     1.8460 O.2   1 <1>  -0.5700 
 17 C      -13.6840     0.3450     0.2730 C.3   1 <1>   0.0610 
 18 C      -14.0970     1.4010     1.3300 C.3   1 <1>  -0.1600 
 19 C      -14.9430    -0.4660    -0.1230 C.3   1 <1>  -0.1600 
 20 C      -13.1850     1.1030    -0.9900 C.3   1 <1>  -0.1600 
 21 C      -15.1960     2.3320     0.7840 C.3   1 <1>  -0.0800 
 22 C      -16.0460     0.4570    -0.6760 C.3   1 <1>  -0.0800 
 23 C      -14.2800     2.0320    -1.5470 C.3   1 <1>  -0.0800 
 24 C      -16.4270     1.4900     0.4000 C.3   1 <1>  -0.1600 
 25 C      -14.6690     3.0580    -0.4670 C.3   1 <1>  -0.1600 
 26 C      -15.5150     1.1920    -1.9200 C.3   1 <1>  -0.1600 
 27 H       -3.1960     2.5190     0.6240 H     1 <1>   0.1500 
 28 H       -3.7120    -0.5050    -2.3200 H     1 <1>   0.1500 
 29 H       -5.4230     2.0180     1.5410 H     1 <1>   0.1500 
 30 H       -5.9390    -1.0180    -1.4150 H     1 <1>   0.1500 
 31 H      -10.5120    -1.8740     1.8230 H     1 <1>   0.0800 
 32 H      -10.0980    -2.3400     0.1950 H     1 <1>   0.0800 
 33 H      -11.1640    -0.1230    -0.5180 H     1 <1>   0.3700 
 34 H      -13.2380     1.9810     1.6170 H     1 <1>   0.0800 
 35 H      -14.4590     0.9040     2.2140 H     1 <1>   0.0800 
 36 H      -15.3190    -0.9920     0.7380 H     1 <1>   0.0800 
 37 H      -14.6830    -1.2030    -0.8610 H     1 <1>   0.0800 
 38 H      -12.9050     0.3980    -1.7530 H     1 <1>   0.0800 
 39 H      -12.3200     1.6930    -0.7450 H     1 <1>   0.0800 
 40 H      -15.4680     3.0530     1.5360 H     1 <1>   0.0800 
 41 H      -16.9110    -0.1280    -0.9400 H     1 <1>   0.0800 
 42 H      -13.9140     2.5460    -2.4200 H     1 <1>   0.0800 
 43 H      -17.2060     2.1320     0.0300 H     1 <1>   0.0800 
 44 H      -16.8070     0.9850     1.2710 H     1 <1>   0.0800 
 45 H      -13.8140     3.6590    -0.2080 H     1 <1>   0.0800 
 46 H      -15.4270     3.7190    -0.8500 H     1 <1>   0.0800 
 47 H      -16.2830     1.8320    -2.3180 H     1 <1>   0.0800 
 48 H      -15.2570     0.4790    -2.6830 H     1 <1>   0.0800 
@<TRIPOS>BOND
  1   1   2  1   
  2   2   3  ar  
  3   2   4  ar  
  4   3   5  ar  
  5   3  27  1   
  6   4   6  ar  
  7   4  28  1   
  8   5   7  ar  
  9   5  29  1   
 10   6   7  ar  
 11   6  30  1   
 12   7   8  1   
 13   8   9  2   
 14   8  10  1   
 15   9  11  1   
 16  10  12  2   
 17  11  12  1   
 18  12  13  1   
 19  13  14  1   
 20  13  31  1   
 21  13  32  1   
 22  14  15  am  
 23  14  33  1   
 24  15  16  2   
 25  15  17  1   
 26  17  18  1   
 27  17  19  1   
 28  17  20  1   
 29  18  21  1   
 30  18  34  1   
 31  18  35  1   
 32  19  22  1   
 33  19  36  1   
 34  19  37  1   
 35  20  23  1   
 36  20  38  1   
 37  20  39  1   
 38  21  24  1   
 39  21  25  1   
 40  21  40  1   
 41  22  24  1   
 42  22  26  1   
 43  22  41  1   
 44  23  25  1   
 45  23  26  1   
 46  23  42  1   
 47  24  43  1   
 48  24  44  1   
 49  25  45  1   
 50  25  46  1   
 51  26  47  1   
 52  26  48  1   
@<TRIPOS>SUBSTRUCTURE
  1 ****  14 GROUP 4 **** **** 0

# MOE 2024.06 (io_trps.svl 2023.06)
