@<TRIPOS>MOLECULE
7-Methyl-5-oxo-2,3-dihydro-1H,5H-pyrido[3,2,1-ij]quinoline-9-sulfonic acid dieth
45 47 1 0 0 
SMALL
USER_CHARGES


@<TRIPOS>ATOM
  1 S        0.0770     0.3510     1.9450 S.o2  1 <1>   1.4470 
  2 O       -0.8500    -0.5910     2.5360 O.2   1 <1>  -0.6500 
  3 O        0.6020     1.4430     2.7370 O.2   1 <1>  -0.6500 
  4 N       -0.6740     1.0290     0.5790 N.am  1 <1>  -0.8490 
  5 C        1.4750    -0.5710     1.2390 C.ar  1 <1>  -0.0090 
  6 C       -1.3820     0.0680    -0.2670 C.3   1 <1>   0.1960 
  7 C        0.1410     2.0020    -0.1460 C.3   1 <1>   0.1960 
  8 C        2.6840     0.0460     0.9800 C.ar  1 <1>  -0.1500 
  9 C        1.3570    -1.9190     0.9130 C.ar  1 <1>  -0.1500 
 10 C       -2.8780     0.2160    -0.0160 C.3   1 <1>  -0.2400 
 11 C       -0.7520     2.9770    -0.9110 C.3   1 <1>  -0.2400 
 12 C        3.7680    -0.6210     0.3990 C.ar  1 <1>   0.0280 
 13 C        2.3980    -2.6180     0.3400 C.ar  1 <1>  -0.1430 
 14 C        3.6170    -1.9840     0.0690 C.ar  1 <1>   0.1170 
 15 C        5.0240     0.0260     0.1220 C.2   1 <1>  -0.1670 
 16 C        2.1970    -4.0880     0.0060 C.3   1 <1>  -0.0170 
 17 N        4.6850    -2.6860    -0.5200 N.am  1 <1>  -0.4770 
 18 C        6.0180    -0.6810    -0.4640 C.2   1 <1>  -0.1360 
 19 C        5.2380     1.4900     0.4840 C.3   1 <1>  -0.1020 
 20 C        3.5350    -4.8250     0.0340 C.3   1 <1>  -0.1600 
 21 C        5.8760    -2.0520    -0.8170 C.2   1 <1>   0.6160 
 22 C        4.5450    -4.1270    -0.8750 C.3   1 <1>   0.1400 
 23 O        6.7860    -2.6470    -1.3740 O.2   1 <1>  -0.5700 
 24 H       -1.0810    -0.9410    -0.0430 H     1 <1>   0.0800 
 25 H       -1.1760     0.2470    -1.3090 H     1 <1>   0.0800 
 26 H        0.8160     1.4990    -0.8190 H     1 <1>   0.0800 
 27 H        0.7270     2.5770     0.5530 H     1 <1>   0.0800 
 28 H        2.7840     1.0820     1.2460 H     1 <1>   0.1500 
 29 H        0.4250    -2.4190     1.1220 H     1 <1>   0.1500 
 30 H       -3.1030     0.0030     1.0150 H     1 <1>   0.0800 
 31 H       -3.1980     1.2150    -0.2480 H     1 <1>   0.0800 
 32 H       -3.4220    -0.4740    -0.6340 H     1 <1>   0.0800 
 33 H       -0.1470     3.7440    -1.3580 H     1 <1>   0.0800 
 34 H       -1.2980     2.4820    -1.6920 H     1 <1>   0.0800 
 35 H       -1.4440     3.4440    -0.2330 H     1 <1>   0.0800 
 36 H        1.7610    -4.1670    -0.9750 H     1 <1>   0.0800 
 37 H        1.5250    -4.5440     0.7120 H     1 <1>   0.0800 
 38 H        6.9740    -0.2520    -0.6970 H     1 <1>   0.1500 
 39 H        5.1090     1.6320     1.5430 H     1 <1>   0.0800 
 40 H        4.5370     2.1110    -0.0440 H     1 <1>   0.0800 
 41 H        6.2310     1.8090     0.2220 H     1 <1>   0.0800 
 42 H        3.4010    -5.8420    -0.2900 H     1 <1>   0.0800 
 43 H        3.9200    -4.8430     1.0390 H     1 <1>   0.0800 
 44 H        5.4980    -4.6210    -0.7820 H     1 <1>   0.0800 
 45 H        4.2300    -4.1960    -1.9020 H     1 <1>   0.0800 
@<TRIPOS>BOND
  1   1   2  2   
  2   1   3  2   
  3   1   4  am  
  4   1   5  1   
  5   4   6  1   
  6   4   7  1   
  7   5   8  ar  
  8   5   9  ar  
  9   6  10  1   
 10   6  24  1   
 11   6  25  1   
 12   7  11  1   
 13   7  26  1   
 14   7  27  1   
 15   8  12  ar  
 16   8  28  1   
 17   9  13  ar  
 18   9  29  1   
 19  10  30  1   
 20  10  31  1   
 21  10  32  1   
 22  11  33  1   
 23  11  34  1   
 24  11  35  1   
 25  12  14  ar  
 26  12  15  1   
 27  13  14  ar  
 28  13  16  1   
 29  14  17  1   
 30  15  18  2   
 31  15  19  1   
 32  16  20  1   
 33  16  36  1   
 34  16  37  1   
 35  17  21  am  
 36  17  22  1   
 37  18  21  1   
 38  18  38  1   
 39  19  39  1   
 40  19  40  1   
 41  19  41  1   
 42  20  22  1   
 43  20  42  1   
 44  20  43  1   
 45  21  23  2   
 46  22  44  1   
 47  22  45  1   
@<TRIPOS>SUBSTRUCTURE
  1 ****   8 GROUP 4 **** **** 0

# MOE 2024.06 (io_trps.svl 2023.06)
