@<TRIPOS>MOLECULE
N-Isopropyl-3,4-dimethoxy-N-(3-m-tolyl-[1,2,4]oxadiazol-5-ylmethyl)-benzamide
54 56 1 0 0 
SMALL
USER_CHARGES


@<TRIPOS>ATOM
  1 O       -0.3390     0.3520    -0.2890 O.2   1 <1>  -0.5700 
  2 C       -0.0180     1.5240    -0.2230 C.2   1 <1>   0.5440 
  3 N        1.2650     1.8210     0.1770 N.am  1 <1>  -0.6600 
  4 C       -0.9840     2.5430    -0.5780 C.ar  1 <1>   0.0860 
  5 C        1.6290     2.8540     1.1900 C.3   1 <1>   0.2200 
  6 C        2.3470     0.8230    -0.1030 C.3   1 <1>   0.3200 
  7 C       -2.2530     2.5540    -0.0040 C.ar  1 <1>  -0.1500 
  8 C       -0.6900     3.5280    -1.5160 C.ar  1 <1>  -0.1500 
  9 C        0.5910     2.9330     2.3100 C.3   1 <1>  -0.2400 
 10 C        1.8530     4.2170     0.5370 C.3   1 <1>  -0.2400 
 11 C        3.5710     1.4780    -0.7250 C.2   1 <1>   0.2980 
 12 C       -3.2020     3.5220    -0.3210 C.ar  1 <1>   0.0820 
 13 C       -1.6140     4.5000    -1.8400 C.ar  1 <1>  -0.1500 
 14 O        3.4730     1.9520    -1.9390 O.3   1 <1>  -0.0190 
 15 N        4.7060     1.6250    -0.1730 N.2   1 <1>  -0.5650 
 16 O       -4.4360     3.4990     0.2620 O.3   1 <1>  -0.3630 
 17 C       -2.8690     4.5230    -1.2530 C.ar  1 <1>   0.0820 
 18 N        4.6450     2.4480    -2.1790 N.2   1 <1>  -0.4100 
 19 C        5.3800     2.2570    -1.1400 C.2   1 <1>   0.4620 
 20 C       -4.9210     2.3640     0.9470 C.3   1 <1>   0.0400 
 21 O       -3.6570     5.5520    -1.6710 O.3   1 <1>  -0.3630 
 22 C        6.7680     2.6660    -0.9960 C.ar  1 <1>   0.0540 
 23 C       -4.9510     5.8070    -1.1760 C.3   1 <1>   0.0400 
 24 C        7.4930     2.4110     0.1710 C.ar  1 <1>  -0.1500 
 25 C        7.4340     3.3350    -2.0240 C.ar  1 <1>  -0.1500 
 26 C        8.8140     2.8000     0.3120 C.ar  1 <1>  -0.1430 
 27 C        8.7530     3.7290    -1.8950 C.ar  1 <1>  -0.1500 
 28 C        9.4440     3.4630    -0.7270 C.ar  1 <1>  -0.1500 
 29 C        9.5710     2.5070     1.5950 C.3   1 <1>  -0.0970 
 30 H        2.5610     2.5610     1.6480 H     1 <1>   0.0800 
 31 H        1.9940     0.0650    -0.7800 H     1 <1>   0.0800 
 32 H        2.6280     0.3410     0.8160 H     1 <1>   0.0800 
 33 H       -2.4650     1.7760     0.7030 H     1 <1>   0.1500 
 34 H        0.2770     3.5280    -1.9900 H     1 <1>   0.1500 
 35 H       -0.3320     3.3570     1.9610 H     1 <1>   0.0800 
 36 H        0.9620     3.5610     3.1000 H     1 <1>   0.0800 
 37 H        0.4070     1.9540     2.7160 H     1 <1>   0.0800 
 38 H        0.9260     4.6580     0.2260 H     1 <1>   0.0800 
 39 H        2.5130     4.1300    -0.3080 H     1 <1>   0.0800 
 40 H        2.3080     4.8820     1.2470 H     1 <1>   0.0800 
 41 H       -1.3670     5.2590    -2.5610 H     1 <1>   0.1500 
 42 H       -5.9550     2.5360     1.1880 H     1 <1>   0.0800 
 43 H       -4.3550     2.2320     1.8520 H     1 <1>   0.0800 
 44 H       -4.8350     1.5030     0.3070 H     1 <1>   0.0800 
 45 H       -5.3230     6.6960    -1.6530 H     1 <1>   0.0800 
 46 H       -4.8950     5.9570    -0.1130 H     1 <1>   0.0800 
 47 H       -5.5860     4.9720    -1.4150 H     1 <1>   0.0800 
 48 H        7.0080     1.8980     0.9820 H     1 <1>   0.1500 
 49 H        6.9120     3.5500    -2.9400 H     1 <1>   0.1500 
 50 H        9.2430     4.2440    -2.7030 H     1 <1>   0.1500 
 51 H       10.4690     3.7730    -0.6320 H     1 <1>   0.1500 
 52 H        9.1270     1.6790     2.1180 H     1 <1>   0.0800 
 53 H        9.5510     3.3720     2.2340 H     1 <1>   0.0800 
 54 H       10.5950     2.2600     1.3760 H     1 <1>   0.0800 
@<TRIPOS>BOND
  1   1   2  2   
  2   2   3  am  
  3   2   4  1   
  4   3   5  1   
  5   3   6  1   
  6   4   7  ar  
  7   4   8  ar  
  8   5   9  1   
  9   5  10  1   
 10   5  30  1   
 11   6  11  1   
 12   6  31  1   
 13   6  32  1   
 14   7  12  ar  
 15   7  33  1   
 16   8  13  ar  
 17   8  34  1   
 18   9  35  1   
 19   9  36  1   
 20   9  37  1   
 21  10  38  1   
 22  10  39  1   
 23  10  40  1   
 24  11  14  1   
 25  11  15  2   
 26  12  16  1   
 27  12  17  ar  
 28  13  17  ar  
 29  13  41  1   
 30  14  18  1   
 31  15  19  1   
 32  16  20  1   
 33  17  21  1   
 34  18  19  2   
 35  19  22  1   
 36  20  42  1   
 37  20  43  1   
 38  20  44  1   
 39  21  23  1   
 40  22  24  ar  
 41  22  25  ar  
 42  23  45  1   
 43  23  46  1   
 44  23  47  1   
 45  24  26  ar  
 46  24  48  1   
 47  25  27  ar  
 48  25  49  1   
 49  26  28  ar  
 50  26  29  1   
 51  27  28  ar  
 52  27  50  1   
 53  28  51  1   
 54  29  52  1   
 55  29  53  1   
 56  29  54  1   
@<TRIPOS>SUBSTRUCTURE
  1 ****   3 GROUP 4 **** **** 0

# MOE 2024.06 (io_trps.svl 2023.06)
