@<TRIPOS>MOLECULE
N-[3-(3,4-Dimethoxy-phenyl)-[1,2,4]oxadiazol-5-ylmethyl]-N-isopropyl-3-methyl-be
54 56 1 0 0 
SMALL
USER_CHARGES


@<TRIPOS>ATOM
  1 O       -0.0820     0.1990    -0.6890 O.2   1 <1>  -0.5700 
  2 C        0.2580     1.3520    -0.4990 C.2   1 <1>   0.5440 
  3 N        1.5270     1.5800    -0.0120 N.am  1 <1>  -0.6600 
  4 C       -0.6690     2.4230    -0.8110 C.ar  1 <1>   0.0860 
  5 C        1.8750     2.5570     1.0620 C.3   1 <1>   0.2200 
  6 C        2.5930     0.5660    -0.2920 C.3   1 <1>   0.3200 
  7 C       -1.9400     2.4610    -0.2410 C.ar  1 <1>  -0.1500 
  8 C       -0.3300     3.4350    -1.7060 C.ar  1 <1>  -0.1500 
  9 C        0.8050     2.5930     2.1540 C.3   1 <1>  -0.2400 
 10 C        2.1370     3.9460     0.4840 C.3   1 <1>  -0.2400 
 11 C        3.8650     1.2150    -0.8180 C.2   1 <1>   0.2980 
 12 C       -2.8340     3.4790    -0.5270 C.ar  1 <1>  -0.1430 
 13 C       -1.2130     4.4570    -2.0000 C.ar  1 <1>  -0.1500 
 14 O        3.8380     1.7680    -2.0010 O.3   1 <1>  -0.0190 
 15 N        4.9770     1.2870    -0.2080 N.2   1 <1>  -0.5650 
 16 C       -2.4630     4.4810    -1.4080 C.ar  1 <1>  -0.1500 
 17 C       -4.2120     3.5060     0.1100 C.3   1 <1>  -0.0970 
 18 N        5.0350     2.2390    -2.1570 N.2   1 <1>  -0.4100 
 19 C        5.7130     1.9580    -1.1010 C.2   1 <1>   0.4620 
 20 C        7.1030     2.3120    -0.8680 C.ar  1 <1>   0.0540 
 21 C        7.7680     1.9580     0.3060 C.ar  1 <1>  -0.1500 
 22 C        7.8370     3.0250    -1.8160 C.ar  1 <1>  -0.1500 
 23 C        9.0910     2.2880     0.5390 C.ar  1 <1>   0.0830 
 24 C        9.1570     3.3760    -1.6010 C.ar  1 <1>  -0.1500 
 25 O        9.5910     1.8550     1.7310 O.3   1 <1>  -0.3630 
 26 C        9.8050     3.0230    -0.4210 C.ar  1 <1>   0.0830 
 27 C       10.9340     1.4400     1.8470 C.3   1 <1>   0.0400 
 28 O       11.0960     3.3920    -0.1800 O.3   1 <1>  -0.3630 
 29 C       11.7970     4.2740    -1.0280 C.3   1 <1>   0.0400 
 30 H        2.7880     2.2270     1.5310 H     1 <1>   0.0800 
 31 H        2.2560    -0.1460    -1.0250 H     1 <1>   0.0800 
 32 H        2.8140     0.0290     0.6120 H     1 <1>   0.0800 
 33 H       -2.2180     1.6710     0.4340 H     1 <1>   0.1500 
 34 H        0.6400     3.4150    -2.1730 H     1 <1>   0.1500 
 35 H       -0.1000     3.0510     1.8020 H     1 <1>   0.0800 
 36 H        1.1630     3.1700     2.9870 H     1 <1>   0.0800 
 37 H        0.5940     1.5970     2.5000 H     1 <1>   0.0800 
 38 H        1.2250     4.4170     0.1740 H     1 <1>   0.0800 
 39 H        2.8170     3.8890    -0.3470 H     1 <1>   0.0800 
 40 H        2.5840     4.5670     1.2390 H     1 <1>   0.0800 
 41 H       -0.9310     5.2330    -2.6910 H     1 <1>   0.1500 
 42 H       -3.1470     5.2790    -1.6390 H     1 <1>   0.1500 
 43 H       -4.3990     2.6020     0.6600 H     1 <1>   0.0800 
 44 H       -4.9650     3.6040    -0.6510 H     1 <1>   0.0800 
 45 H       -4.2870     4.3410     0.7830 H     1 <1>   0.0800 
 46 H        7.2440     1.4060     1.0650 H     1 <1>   0.1500 
 47 H        7.3640     3.3130    -2.7390 H     1 <1>   0.1500 
 48 H        9.6610     3.9270    -2.3720 H     1 <1>   0.1500 
 49 H       11.0140     0.7990     2.7060 H     1 <1>   0.0800 
 50 H       11.5540     2.3070     1.9820 H     1 <1>   0.0800 
 51 H       11.2160     0.9030     0.9580 H     1 <1>   0.0800 
 52 H       12.7590     4.4650    -0.5880 H     1 <1>   0.0800 
 53 H       11.2450     5.1930    -1.1100 H     1 <1>   0.0800 
 54 H       11.9220     3.8090    -1.9900 H     1 <1>   0.0800 
@<TRIPOS>BOND
  1   1   2  2   
  2   2   3  am  
  3   2   4  1   
  4   3   5  1   
  5   3   6  1   
  6   4   7  ar  
  7   4   8  ar  
  8   5   9  1   
  9   5  10  1   
 10   5  30  1   
 11   6  11  1   
 12   6  31  1   
 13   6  32  1   
 14   7  12  ar  
 15   7  33  1   
 16   8  13  ar  
 17   8  34  1   
 18   9  35  1   
 19   9  36  1   
 20   9  37  1   
 21  10  38  1   
 22  10  39  1   
 23  10  40  1   
 24  11  14  1   
 25  11  15  2   
 26  12  16  ar  
 27  12  17  1   
 28  13  16  ar  
 29  13  41  1   
 30  14  18  1   
 31  15  19  1   
 32  16  42  1   
 33  17  43  1   
 34  17  44  1   
 35  17  45  1   
 36  18  19  2   
 37  19  20  1   
 38  20  21  ar  
 39  20  22  ar  
 40  21  23  ar  
 41  21  46  1   
 42  22  24  ar  
 43  22  47  1   
 44  23  25  1   
 45  23  26  ar  
 46  24  26  ar  
 47  24  48  1   
 48  25  27  1   
 49  26  28  1   
 50  27  49  1   
 51  27  50  1   
 52  27  51  1   
 53  28  29  1   
 54  29  52  1   
 55  29  53  1   
 56  29  54  1   
@<TRIPOS>SUBSTRUCTURE
  1 ****  11 GROUP 4 **** **** 0

# MOE 2024.06 (io_trps.svl 2023.06)
