@<TRIPOS>MOLECULE
(1,6-Dimethyl-3,4-dihydro-1H-pyrrolo[1,2-a]pyrazin-2-yl)-p-tolyl-methanone
40 42 1 0 0 
SMALL
USER_CHARGES


@<TRIPOS>ATOM
  1 O       -0.4340     1.1250    -1.9120 O.2   1 <1>  -0.5700 
  2 C       -0.3320     2.1540    -1.2700 C.2   1 <1>   0.5440 
  3 N       -1.4440     2.9540    -1.1260 N.am  1 <1>  -0.6600 
  4 C        0.9510     2.4940    -0.6840 C.ar  1 <1>   0.0860 
  5 C       -1.3890     4.3550    -0.6260 C.3   1 <1>   0.4000 
  6 C       -2.8220     2.4290    -1.3730 C.3   1 <1>   0.1400 
  7 C        1.0910     2.7150     0.6860 C.ar  1 <1>  -0.1500 
  8 C        2.0920     2.6060    -1.4750 C.ar  1 <1>  -0.1500 
  9 C       -2.4090     4.5400     0.4860 C.2   1 <1>  -0.3320 
 10 C       -1.6740     5.3180    -1.7740 C.3   1 <1>  -0.2400 
 11 C       -3.6260     2.4090    -0.0700 C.3   1 <1>   0.0960 
 12 C        2.3140     3.0510     1.2380 C.ar  1 <1>  -0.1500 
 13 C        3.3170     2.9420    -0.9270 C.ar  1 <1>  -0.1500 
 14 N       -3.4340     3.6650     0.6860 N.pl3 1 <1>   0.0480 
 15 C       -2.4800     5.5330     1.4120 C.2   1 <1>  -0.1500 
 16 C        3.4350     3.1670     0.4340 C.ar  1 <1>  -0.1430 
 17 C       -4.1540     4.1190     1.7510 C.2   1 <1>  -0.3320 
 18 C       -3.5920     5.2650     2.2140 C.2   1 <1>  -0.1500 
 19 C        4.7780     3.5370     1.0370 C.3   1 <1>  -0.0970 
 20 C       -5.3810     3.4110     2.2990 C.3   1 <1>  -0.0600 
 21 H       -0.4140     4.5860    -0.2380 H     1 <1>   0.0800 
 22 H       -2.7870     1.4340    -1.7800 H     1 <1>   0.0800 
 23 H       -3.3190     3.0520    -2.0940 H     1 <1>   0.0800 
 24 H        0.2270     2.6220     1.3210 H     1 <1>   0.1500 
 25 H        2.0080     2.4230    -2.5320 H     1 <1>   0.1500 
 26 H       -2.6840     5.2110    -2.1230 H     1 <1>   0.0800 
 27 H       -0.9890     5.1410    -2.5830 H     1 <1>   0.0800 
 28 H       -1.5460     6.3270    -1.4300 H     1 <1>   0.0800 
 29 H       -3.2920     1.5920     0.5430 H     1 <1>   0.0800 
 30 H       -4.6700     2.2780    -0.2830 H     1 <1>   0.0800 
 31 H        2.3890     3.2200     2.2990 H     1 <1>   0.1500 
 32 H        4.1790     3.0240    -1.5650 H     1 <1>   0.1500 
 33 H       -1.8250     6.3780     1.5320 H     1 <1>   0.1500 
 34 H       -3.9150     5.8740     3.0410 H     1 <1>   0.1500 
 35 H        5.5780     3.0860     0.4780 H     1 <1>   0.0800 
 36 H        4.8420     3.1950     2.0540 H     1 <1>   0.0800 
 37 H        4.9030     4.6050     1.0210 H     1 <1>   0.0800 
 38 H       -6.1460     3.3580     1.5450 H     1 <1>   0.0800 
 39 H       -5.7700     3.9500     3.1440 H     1 <1>   0.0800 
 40 H       -5.1250     2.4170     2.6160 H     1 <1>   0.0800 
@<TRIPOS>BOND
  1   1   2  2   
  2   2   3  am  
  3   2   4  1   
  4   3   5  1   
  5   3   6  1   
  6   4   7  ar  
  7   4   8  ar  
  8   5   9  1   
  9   5  10  1   
 10   5  21  1   
 11   6  11  1   
 12   6  22  1   
 13   6  23  1   
 14   7  12  ar  
 15   7  24  1   
 16   8  13  ar  
 17   8  25  1   
 18   9  14  1   
 19   9  15  2   
 20  10  26  1   
 21  10  27  1   
 22  10  28  1   
 23  11  14  1   
 24  11  29  1   
 25  11  30  1   
 26  12  16  ar  
 27  12  31  1   
 28  13  16  ar  
 29  13  32  1   
 30  14  17  1   
 31  15  18  1   
 32  15  33  1   
 33  16  19  1   
 34  17  18  2   
 35  17  20  1   
 36  18  34  1   
 37  19  35  1   
 38  19  36  1   
 39  19  37  1   
 40  20  38  1   
 41  20  39  1   
 42  20  40  1   
@<TRIPOS>SUBSTRUCTURE
  1 ****   5 GROUP 4 **** **** 0

# MOE 2024.06 (io_trps.svl 2023.06)
