@<TRIPOS>MOLECULE
10-Oxo-2-[(E)-tetrahydro-furan-2-ylmethylimino]-1,10-dihydro-2H-1,9,10a-triaza-a
50 53 1 0 0 
SMALL
USER_CHARGES


@<TRIPOS>ATOM
  1 O       -0.9130    -1.3750     2.1710 O.2   1 <1>  -0.5700 
  2 C       -0.4660    -2.1420     1.3490 C.2   1 <1>   0.8650 
  3 N       -1.3410    -3.0700     0.7540 N.pl3 1 <1>  -0.5760 
  4 C        0.9150    -2.1000     0.9860 C.ar  1 <1>   0.0860 
  5 C       -0.8770    -3.9240    -0.1910 C.cat 1 <1>   0.7390 
  6 C       -2.6700    -3.1250     1.1150 C.2   1 <1>   0.1910 
  7 C        1.3210    -3.0030     0.0120 C.ar  1 <1>   0.6590 
  8 C        1.8780    -1.2460     1.5070 C.ar  1 <1>  -0.1500 
  9 N        0.4180    -3.8590    -0.5310 N.pl3 1 <1>  -0.6530 
 10 C       -1.7440    -4.8480    -0.7900 C.2   1 <1>  -0.1800 
 11 C       -3.5290    -4.0200     0.5410 C.2   1 <1>  -0.1500 
 12 N        2.5380    -3.1250    -0.4590 N.ar  1 <1>  -0.6200 
 13 C        3.1760    -1.3390     1.0400 C.ar  1 <1>   0.0860 
 14 C       -3.0660    -4.9070    -0.4360 C.2   1 <1>  -0.1500 
 15 C        3.4540    -2.3260     0.0650 C.ar  1 <1>   0.4100 
 16 C        4.1850    -0.4560     1.5580 C.2   1 <1>   0.5440 
 17 N        4.6900    -2.5650    -0.4430 N.pl3 1 <1>  -0.8690 
 18 O        4.5700    -0.5900     2.7000 O.2   1 <1>  -0.5700 
 19 N        4.7310     0.5670     0.8490 N.am  1 <1>  -0.7300 
 20 C        5.9310    -2.6900     0.3700 C.3   1 <1>   0.2090 
 21 C        4.5730     0.8900    -0.5770 C.3   1 <1>   0.2780 
 22 C        6.9960    -3.4820    -0.4080 C.3   1 <1>   0.2000 
 23 C        5.9520     0.9120    -1.1940 C.2   1 <1>  -0.2880 
 24 O        6.4330    -4.6110    -1.0030 O.3   1 <1>  -0.5600 
 25 C        8.1290    -4.0290     0.4470 C.3   1 <1>  -0.1600 
 26 C        6.5660     1.9930    -1.6850 C.2   1 <1>  -0.3000 
 27 C        7.4190    -5.5610    -1.2660 C.3   1 <1>   0.1200 
 28 C        8.6010    -5.2290    -0.3560 C.3   1 <1>  -0.1600 
 29 H       -3.0360    -2.4420     1.8700 H     1 <1>   0.1500 
 30 H        1.6270    -0.5210     2.2670 H     1 <1>   0.1500 
 31 H        0.8190    -4.4850    -1.2320 H     1 <1>   0.4500 
 32 H       -1.3590    -5.5180    -1.5370 H     1 <1>   0.1500 
 33 H       -4.5660    -4.0540     0.8310 H     1 <1>   0.1500 
 34 H       -3.7480    -5.6130    -0.8860 H     1 <1>   0.1500 
 35 H        4.7110    -3.3120    -1.1560 H     1 <1>   0.4000 
 36 H        5.4520     1.1100     1.3310 H     1 <1>   0.3700 
 37 H        5.7050    -3.1980     1.2920 H     1 <1>   0.0800 
 38 H        6.3240    -1.7180     0.6100 H     1 <1>   0.0800 
 39 H        4.1080     1.8570    -0.6710 H     1 <1>   0.0800 
 40 H        3.9600     0.1600    -1.0750 H     1 <1>   0.0800 
 41 H        7.3970    -2.8710    -1.2000 H     1 <1>   0.0800 
 42 H        6.4060    -0.0640    -1.2020 H     1 <1>   0.1500 
 43 H        7.7480    -4.3520     1.4010 H     1 <1>   0.0800 
 44 H        8.9050    -3.3010     0.6010 H     1 <1>   0.0800 
 45 H        7.5500     1.9770    -2.1220 H     1 <1>   0.1500 
 46 H        6.1430     2.9840    -1.6950 H     1 <1>   0.1500 
 47 H        7.6910    -5.4880    -2.3060 H     1 <1>   0.0800 
 48 H        7.0130    -6.5360    -1.0600 H     1 <1>   0.0800 
 49 H        8.8530    -6.0610     0.2780 H     1 <1>   0.0800 
 50 H        9.4560    -4.9770    -0.9580 H     1 <1>   0.0800 
@<TRIPOS>BOND
  1   1   2  2   
  2   2   3  1   
  3   2   4  1   
  4   3   5  ar  
  5   3   6  1   
  6   4   7  ar  
  7   4   8  ar  
  8   5   9  ar  
  9   5  10  1   
 10   6  11  2   
 11   6  29  1   
 12   7   9  1   
 13   7  12  ar  
 14   8  13  ar  
 15   8  30  1   
 16   9  31  1   
 17  10  14  2   
 18  10  32  1   
 19  11  14  1   
 20  11  33  1   
 21  12  15  ar  
 22  13  15  ar  
 23  13  16  1   
 24  14  34  1   
 25  15  17  1   
 26  16  18  2   
 27  16  19  am  
 28  17  20  1   
 29  17  35  1   
 30  19  21  1   
 31  19  36  1   
 32  20  22  1   
 33  20  37  1   
 34  20  38  1   
 35  21  23  1   
 36  21  39  1   
 37  21  40  1   
 38  22  24  1   
 39  22  25  1   
 40  22  41  1   
 41  23  26  2   
 42  23  42  1   
 43  24  27  1   
 44  25  28  1   
 45  25  43  1   
 46  25  44  1   
 47  26  45  1   
 48  26  46  1   
 49  27  28  1   
 50  27  47  1   
 51  27  48  1   
 52  28  49  1   
 53  28  50  1   
@<TRIPOS>SUBSTRUCTURE
  1 ****  15 GROUP 4 **** **** 0

# MOE 2024.06 (io_trps.svl 2023.06)
