@<TRIPOS>MOLECULE
7-(2-Hydroxy-2-phenyl-ethyl)-3-methyl-8-(3-morpholin-4-yl-propylamino)-3,7-dihyd
61 64 1 0 0 
SMALL
USER_CHARGES


@<TRIPOS>ATOM
  1 O        1.4660     2.1630    -0.6900 O.2   1 <1>  -0.5740 
  2 C        2.6250     2.2480    -1.0210 C.2   1 <1>   0.6870 
  3 N        3.6270     1.5150    -0.4010 N.am  1 <1>  -0.4410 
  4 N        2.9490     3.0940    -2.0400 N.am  1 <1>  -0.4940 
  5 C        4.9320     1.7200    -0.8280 C.2   1 <1>   0.4210 
  6 C        3.3070     0.5750     0.7120 C.3   1 <1>   0.0530 
  7 C        4.2230     3.2850    -2.4940 C.2   1 <1>   0.7000 
  8 N        6.0700     1.1660    -0.3230 N.pl3 1 <1>  -0.7030 
  9 C        5.2710     2.5630    -1.8310 C.2   1 <1>   0.2710 
 10 O        4.4040     4.0320    -3.4360 O.2   1 <1>  -0.5740 
 11 C        7.1030     1.6950    -0.9720 C.cat 1 <1>   1.0690 
 12 N        6.6760     2.5120    -1.9310 N.pl3 1 <1>  -0.7670 
 13 N        8.3840     1.4890    -0.6770 N.pl3 1 <1>  -0.7170 
 14 C        7.4710     3.4360    -2.8090 C.3   1 <1>   0.3490 
 15 C        9.0050     0.5700     0.3030 C.3   1 <1>   0.1610 
 16 C        8.1050     4.6020    -2.0160 C.3   1 <1>   0.3380 
 17 C       10.2890    -0.0110    -0.3010 C.3   1 <1>  -0.1660 
 18 O        9.1830     4.1220    -1.2700 O.3   1 <1>  -0.6830 
 19 C        7.0720     5.2380    -1.0830 C.ar  1 <1>  -0.1500 
 20 C       10.9950    -0.9480     0.6870 C.3   1 <1>   0.3380 
 21 C        6.1180     6.0810    -1.6360 C.ar  1 <1>  -0.1560 
 22 C        7.0170     4.9740     0.2830 C.ar  1 <1>  -0.1560 
 23 N       12.2860    -1.4330     0.1280 N.4   1 <1>  -0.9610 
 24 C        5.1230     6.6350    -0.8510 C.ar  1 <1>  -0.1560 
 25 C        6.0230     5.5300     1.0690 C.ar  1 <1>  -0.1560 
 26 C       12.1100    -2.4020    -1.0150 C.3   1 <1>   0.3380 
 27 C       13.1170    -2.0770     1.2070 C.3   1 <1>   0.3380 
 28 C        5.0730     6.3580     0.5010 C.ar  1 <1>  -0.1560 
 29 C       13.4590    -2.9800    -1.4830 C.3   1 <1>   0.1140 
 30 C       14.4220    -2.6710     0.6430 C.3   1 <1>   0.1140 
 31 O       14.1370    -3.5510    -0.4040 O.3   1 <1>  -0.5640 
 32 H        2.1910     3.6130    -2.4790 H     1 <1>   0.3650 
 33 H        2.2550     0.3420     0.7210 H     1 <1>   0.0730 
 34 H        3.5630     1.0260     1.6540 H     1 <1>   0.0730 
 35 H        3.8510    -0.3450     0.5910 H     1 <1>   0.0730 
 36 H        6.1240     0.5430     0.4750 H     1 <1>   0.4450 
 37 H        9.0040     2.2350    -1.0340 H     1 <1>   0.4450 
 38 H        6.8300     3.8500    -3.5660 H     1 <1>   0.0730 
 39 H        8.2440     2.8870    -3.3190 H     1 <1>   0.0730 
 40 H        8.3200    -0.2260     0.5490 H     1 <1>   0.0730 
 41 H        9.2350     1.1180     1.2030 H     1 <1>   0.0730 
 42 H        8.4910     5.3390    -2.7010 H     1 <1>   0.0730 
 43 H       10.9540     0.7980    -0.5500 H     1 <1>   0.0730 
 44 H       10.0330    -0.5520    -1.1940 H     1 <1>   0.0730 
 45 H        9.5720     4.8890    -0.7900 H     1 <1>   0.3950 
 46 H       10.3620    -1.7900     0.9190 H     1 <1>   0.0730 
 47 H       11.1870    -0.4110     1.6020 H     1 <1>   0.0730 
 48 H        6.1290     6.3140    -2.6890 H     1 <1>   0.1440 
 49 H        7.7400     4.3370     0.7600 H     1 <1>   0.1440 
 50 H       12.8300    -0.6350    -0.2250 H     1 <1>   0.4450 
 51 H        4.3880     7.2880    -1.2930 H     1 <1>   0.1440 
 52 H        5.9880     5.3270     2.1260 H     1 <1>   0.1440 
 53 H       11.6320    -1.9110    -1.8460 H     1 <1>   0.0730 
 54 H       11.4820    -3.2210    -0.7050 H     1 <1>   0.0730 
 55 H       12.5580    -2.8730     1.6710 H     1 <1>   0.0730 
 56 H       13.3590    -1.3530     1.9670 H     1 <1>   0.0730 
 57 H        4.3010     6.7940     1.1130 H     1 <1>   0.1440 
 58 H       14.0800    -2.2200    -1.9220 H     1 <1>   0.0730 
 59 H       13.2970    -3.7550    -2.2130 H     1 <1>   0.0730 
 60 H       14.9360    -3.2290     1.4070 H     1 <1>   0.0730 
 61 H       15.0800    -1.9000     0.2800 H     1 <1>   0.0730 
@<TRIPOS>BOND
  1   1   2  2   
  2   2   3  am  
  3   2   4  am  
  4   3   5  1   
  5   3   6  1   
  6   4   7  am  
  7   4  32  1   
  8   5   8  1   
  9   5   9  2   
 10   6  33  1   
 11   6  34  1   
 12   6  35  1   
 13   7   9  1   
 14   7  10  2   
 15   8  11  ar  
 16   8  36  1   
 17   9  12  1   
 18  11  12  ar  
 19  11  13  ar  
 20  12  14  1   
 21  13  15  1   
 22  13  37  1   
 23  14  16  1   
 24  14  38  1   
 25  14  39  1   
 26  15  17  1   
 27  15  40  1   
 28  15  41  1   
 29  16  18  1   
 30  16  19  1   
 31  16  42  1   
 32  17  20  1   
 33  17  43  1   
 34  17  44  1   
 35  18  45  1   
 36  19  21  ar  
 37  19  22  ar  
 38  20  23  1   
 39  20  46  1   
 40  20  47  1   
 41  21  24  ar  
 42  21  48  1   
 43  22  25  ar  
 44  22  49  1   
 45  23  26  1   
 46  23  27  1   
 47  23  50  1   
 48  24  28  ar  
 49  24  51  1   
 50  25  28  ar  
 51  25  52  1   
 52  26  29  1   
 53  26  53  1   
 54  26  54  1   
 55  27  30  1   
 56  27  55  1   
 57  27  56  1   
 58  28  57  1   
 59  29  31  1   
 60  29  58  1   
 61  29  59  1   
 62  30  31  1   
 63  30  60  1   
 64  30  61  1   
@<TRIPOS>SUBSTRUCTURE
  1 ****  11 GROUP 4 **** **** 0

# MOE 2024.06 (io_trps.svl 2023.06)
