@<TRIPOS>MOLECULE
4-(2-Methoxy-ethoxy)-benzaldehyde
25 25 1 0 0 
SMALL
USER_CHARGES


@<TRIPOS>ATOM
  1 O        0.1680     0.3640    -0.0110 O.2   1 <1>  -0.5700 
  2 C        1.1840     1.0110    -0.0040 C.2   1 <1>   0.4240 
  3 C        1.2560     2.4500    -0.0050 C.ar  1 <1>   0.0860 
  4 C        0.1040     3.2380    -0.0150 C.ar  1 <1>  -0.1500 
  5 C        2.4870     3.1100     0.0040 C.ar  1 <1>  -0.1500 
  6 C        0.1770     4.6180    -0.0160 C.ar  1 <1>  -0.1500 
  7 C        2.5670     4.4900     0.0020 C.ar  1 <1>  -0.1500 
  8 C        1.4060     5.2570    -0.0080 C.ar  1 <1>   0.0830 
  9 O        1.3950     6.6080    -0.0090 O.3   1 <1>  -0.3630 
 10 C        2.5890     7.3610    -0.0010 C.3   1 <1>   0.1200 
 11 C        2.2300     8.8420    -0.0060 C.3   1 <1>   0.1200 
 12 O        3.4130     9.5760     0.0030 O.3   1 <1>  -0.5600 
 13 C        3.2190    10.9540    -0.0010 C.3   1 <1>   0.0400 
 14 H        2.1170     0.4780     0.0040 H     1 <1>   0.0600 
 15 H       -0.8590     2.7550    -0.0220 H     1 <1>   0.1500 
 16 H        3.3950     2.5330     0.0110 H     1 <1>   0.1500 
 17 H       -0.7200     5.2110    -0.0240 H     1 <1>   0.1500 
 18 H        3.5370     4.9530     0.0090 H     1 <1>   0.1500 
 19 H        3.1540     7.1140    -0.8820 H     1 <1>   0.0800 
 20 H        3.1400     7.1160     0.8900 H     1 <1>   0.0800 
 21 H        1.6620     9.0900     0.8750 H     1 <1>   0.0800 
 22 H        1.6770     9.0880    -0.8960 H     1 <1>   0.0800 
 23 H        4.1850    11.4270     0.0070 H     1 <1>   0.0800 
 24 H        2.6690    11.2380     0.8800 H     1 <1>   0.0800 
 25 H        2.6840    11.2360    -0.8910 H     1 <1>   0.0800 
@<TRIPOS>BOND
  1   1   2  2   
  2   2   3  1   
  3   2  14  1   
  4   3   4  ar  
  5   3   5  ar  
  6   4   6  ar  
  7   4  15  1   
  8   5   7  ar  
  9   5  16  1   
 10   6   8  ar  
 11   6  17  1   
 12   7   8  ar  
 13   7  18  1   
 14   8   9  1   
 15   9  10  1   
 16  10  11  1   
 17  10  19  1   
 18  10  20  1   
 19  11  12  1   
 20  11  21  1   
 21  11  22  1   
 22  12  13  1   
 23  13  23  1   
 24  13  24  1   
 25  13  25  1   
@<TRIPOS>SUBSTRUCTURE
  1 ****   8 GROUP 4 **** **** 0

# MOE 2024.06 (io_trps.svl 2023.06)
