@<TRIPOS>MOLECULE
8-Furan-2-ylmethyl-1,3-dimethyl-5,6,7,8-tetrahydro-1H-1,3,4b,8,9-pentaaza-fluore
41 44 1 0 0 
SMALL
USER_CHARGES


@<TRIPOS>ATOM
  1 O        0.6140     0.0810     0.0220 O.2   1 <1>  -0.5760 
  2 C        1.6320     0.7420     0.0020 C.2   1 <1>   0.6850 
  3 N        1.5610     2.1330     0.0240 N.am  1 <1>  -0.4270 
  4 N        2.8670     0.1090    -0.0430 N.am  1 <1>  -0.4430 
  5 C        2.7110     2.9130     0.0180 C.2   1 <1>   0.6980 
  6 C        0.2150     2.7850     0.0820 C.3   1 <1>   0.0500 
  7 C        3.9980     0.8970    -0.0740 C.2   1 <1>   0.4190 
  8 C        2.9770    -1.3800    -0.0720 C.3   1 <1>   0.0500 
  9 O        2.6470     4.1310     0.0630 O.2   1 <1>  -0.5760 
 10 C        3.9740     2.2450    -0.0440 C.2   1 <1>   0.2690 
 11 N        5.2940     0.4940    -0.1440 N.pl3 1 <1>  -0.7050 
 12 N        5.3170     2.6580    -0.0930 N.pl3 1 <1>  -0.7680 
 13 C        6.0790     1.5670    -0.1580 C.cat 1 <1>   1.0680 
 14 C        5.8110     4.0470    -0.0920 C.3   1 <1>   0.3470 
 15 N        7.4280     1.6270    -0.2340 N.pl3 1 <1>  -0.5970 
 16 C        7.2670     4.0400     0.3780 C.3   1 <1>  -0.1690 
 17 C        8.0970     2.9580    -0.3240 C.3   1 <1>   0.1590 
 18 C        8.3880     0.4750    -0.2930 C.3   1 <1>   0.3400 
 19 C        7.7550    -0.8970    -0.1250 C.2   1 <1>  -0.0500 
 20 O        7.0860    -1.4240    -1.1350 O.3   1 <1>  -0.2880 
 21 C        7.7430    -1.7360     0.9340 C.2   1 <1>  -0.1590 
 22 C        6.6480    -2.6080    -0.7530 C.2   1 <1>  -0.0200 
 23 C        7.0140    -2.8580     0.5210 C.2   1 <1>  -0.1590 
 24 H       -0.4780     2.2600    -0.5540 H     1 <1>   0.0700 
 25 H        0.2640     3.8080    -0.2480 H     1 <1>   0.0700 
 26 H       -0.1530     2.7600     1.0920 H     1 <1>   0.0700 
 27 H        2.0700    -1.8360     0.2850 H     1 <1>   0.0700 
 28 H        3.7860    -1.7060     0.5580 H     1 <1>   0.0700 
 29 H        3.1540    -1.7090    -1.0810 H     1 <1>   0.0700 
 30 H        5.6680    -0.4550    -0.2450 H     1 <1>   0.4430 
 31 H        5.2130     4.6550     0.5670 H     1 <1>   0.0700 
 32 H        5.7400     4.4490    -1.0890 H     1 <1>   0.0700 
 33 H        7.2960     3.8800     1.4410 H     1 <1>   0.0700 
 34 H        7.7030     5.0060     0.1920 H     1 <1>   0.0700 
 35 H        8.2280     3.2130    -1.3640 H     1 <1>   0.0700 
 36 H        9.0720     2.9130     0.1350 H     1 <1>   0.0700 
 37 H        9.1170     0.6010     0.4890 H     1 <1>   0.0700 
 38 H        8.9110     0.4990    -1.2330 H     1 <1>   0.0700 
 39 H        8.1920    -1.6170     1.9060 H     1 <1>   0.1410 
 40 H        6.0910    -3.2120    -1.4500 H     1 <1>   0.1410 
 41 H        6.8180    -3.7320     1.1200 H     1 <1>   0.1410 
@<TRIPOS>BOND
  1   1   2  2   
  2   2   3  am  
  3   2   4  am  
  4   3   5  am  
  5   3   6  1   
  6   4   7  1   
  7   4   8  1   
  8   5   9  2   
  9   5  10  1   
 10   6  24  1   
 11   6  25  1   
 12   6  26  1   
 13   7  10  2   
 14   7  11  1   
 15   8  27  1   
 16   8  28  1   
 17   8  29  1   
 18  10  12  1   
 19  11  13  ar  
 20  11  30  1   
 21  12  13  ar  
 22  12  14  1   
 23  13  15  ar  
 24  14  16  1   
 25  14  31  1   
 26  14  32  1   
 27  15  17  1   
 28  15  18  1   
 29  16  17  1   
 30  16  33  1   
 31  16  34  1   
 32  17  35  1   
 33  17  36  1   
 34  18  19  1   
 35  18  37  1   
 36  18  38  1   
 37  19  20  1   
 38  19  21  2   
 39  20  22  1   
 40  21  23  1   
 41  21  39  1   
 42  22  23  2   
 43  22  40  1   
 44  23  41  1   
@<TRIPOS>SUBSTRUCTURE
  1 ****  11 GROUP 4 **** **** 0

# MOE 2024.06 (io_trps.svl 2023.06)
