@<TRIPOS>MOLECULE
2,3-Dihydro-benzo[1,4]dioxine-2-carboxylic acid [4-methoxy-3-(morpholine-4-sulfo
52 55 1 0 0 
SMALL
USER_CHARGES


@<TRIPOS>ATOM
  1 S       -0.5940    -1.0110    -1.4070 S.o2  1 <1>   1.4470 
  2 O       -1.0530     0.1550    -2.1320 O.2   1 <1>  -0.6500 
  3 O        0.1750    -1.9890    -2.1480 O.2   1 <1>  -0.6500 
  4 N        0.4030    -0.4290    -0.1650 N.am  1 <1>  -0.8490 
  5 C       -2.0200    -1.7460    -0.5570 C.ar  1 <1>  -0.0090 
  6 C        1.0740    -1.5050     0.5820 C.3   1 <1>   0.1960 
  7 C        1.4130     0.5000    -0.6930 C.3   1 <1>   0.1960 
  8 C       -2.0240    -3.0630    -0.1030 C.ar  1 <1>   0.0820 
  9 C       -3.1600    -0.9860    -0.3260 C.ar  1 <1>  -0.1500 
 10 C        2.0110    -0.9370     1.6640 C.3   1 <1>   0.1200 
 11 C        2.3390     1.0170     0.4230 C.3   1 <1>   0.1200 
 12 O       -0.9370    -3.8500    -0.2510 O.3   1 <1>  -0.3630 
 13 C       -3.1300    -3.5960     0.5430 C.ar  1 <1>  -0.1500 
 14 C       -4.2810    -1.5010     0.3160 C.ar  1 <1>   0.1170 
 15 O        2.9380    -0.0510     1.1020 O.3   1 <1>  -0.5600 
 16 C       -0.9940    -4.8080    -1.2850 C.3   1 <1>   0.0400 
 17 C       -4.2540    -2.8200     0.7450 C.ar  1 <1>  -0.1500 
 18 N       -5.4390    -0.7390     0.5270 N.am  1 <1>  -0.5470 
 19 C       -5.5920     0.6070     0.7300 C.2   1 <1>   0.5690 
 20 O       -4.6600     1.3690     0.8180 O.2   1 <1>  -0.5700 
 21 C       -7.0040     1.1730     0.8480 C.3   1 <1>   0.2610 
 22 O       -7.9670     0.1170     0.8800 O.3   1 <1>  -0.3630 
 23 C       -7.2940     2.1200    -0.3240 C.3   1 <1>   0.1200 
 24 C       -9.2580     0.4520     0.6280 C.ar  1 <1>   0.0820 
 25 O       -8.6300     2.5870    -0.2710 O.3   1 <1>  -0.3630 
 26 C       -9.5880     1.6870     0.0660 C.ar  1 <1>   0.0820 
 27 C      -10.2560    -0.4530     0.9430 C.ar  1 <1>  -0.1500 
 28 C      -10.9150     2.0100    -0.1610 C.ar  1 <1>  -0.1500 
 29 C      -11.5830    -0.1280     0.7090 C.ar  1 <1>  -0.1500 
 30 C      -11.9110     1.1020     0.1600 C.ar  1 <1>  -0.1500 
 31 H        1.6480    -2.1260    -0.0870 H     1 <1>   0.0800 
 32 H        0.3390    -2.1240     1.0650 H     1 <1>   0.0800 
 33 H        0.9240     1.3430    -1.1520 H     1 <1>   0.0800 
 34 H        2.0080     0.0100    -1.4460 H     1 <1>   0.0800 
 35 H       -3.1740     0.0360    -0.6630 H     1 <1>   0.1500 
 36 H        2.5610    -1.7320     2.1350 H     1 <1>   0.0800 
 37 H        1.4440    -0.4130     2.4140 H     1 <1>   0.0800 
 38 H        1.7820     1.6070     1.1300 H     1 <1>   0.0800 
 39 H        3.1230     1.6220     0.0060 H     1 <1>   0.0800 
 40 H       -3.1020    -4.6130     0.8900 H     1 <1>   0.1500 
 41 H       -0.0490    -5.3190    -1.3220 H     1 <1>   0.0800 
 42 H       -1.1710    -4.3030    -2.2190 H     1 <1>   0.0800 
 43 H       -1.7850    -5.5070    -1.0790 H     1 <1>   0.0800 
 44 H       -5.1080    -3.2380     1.2460 H     1 <1>   0.1500 
 45 H       -6.3180    -1.2620     0.5730 H     1 <1>   0.3700 
 46 H       -7.0810     1.7140     1.7730 H     1 <1>   0.0800 
 47 H       -7.1540     1.6110    -1.2620 H     1 <1>   0.0800 
 48 H       -6.6430     2.9750    -0.2900 H     1 <1>   0.0800 
 49 H       -9.9970    -1.4040     1.3710 H     1 <1>   0.1500 
 50 H      -11.1610     2.9650    -0.5880 H     1 <1>   0.1500 
 51 H      -12.3600    -0.8300     0.9550 H     1 <1>   0.1500 
 52 H      -12.9430     1.3540    -0.0180 H     1 <1>   0.1500 
@<TRIPOS>BOND
  1   1   2  2   
  2   1   3  2   
  3   1   4  am  
  4   1   5  1   
  5   4   6  1   
  6   4   7  1   
  7   5   8  ar  
  8   5   9  ar  
  9   6  10  1   
 10   6  31  1   
 11   6  32  1   
 12   7  11  1   
 13   7  33  1   
 14   7  34  1   
 15   8  12  1   
 16   8  13  ar  
 17   9  14  ar  
 18   9  35  1   
 19  10  15  1   
 20  10  36  1   
 21  10  37  1   
 22  11  15  1   
 23  11  38  1   
 24  11  39  1   
 25  12  16  1   
 26  13  17  ar  
 27  13  40  1   
 28  14  17  ar  
 29  14  18  1   
 30  16  41  1   
 31  16  42  1   
 32  16  43  1   
 33  17  44  1   
 34  18  19  am  
 35  18  45  1   
 36  19  20  2   
 37  19  21  1   
 38  21  22  1   
 39  21  23  1   
 40  21  46  1   
 41  22  24  1   
 42  23  25  1   
 43  23  47  1   
 44  23  48  1   
 45  24  26  ar  
 46  24  27  ar  
 47  25  26  1   
 48  26  28  ar  
 49  27  29  ar  
 50  27  49  1   
 51  28  30  ar  
 52  28  50  1   
 53  29  30  ar  
 54  29  51  1   
 55  30  52  1   
@<TRIPOS>SUBSTRUCTURE
  1 ****  14 GROUP 4 **** **** 0

# MOE 2024.06 (io_trps.svl 2023.06)
