@<TRIPOS>MOLECULE
7-(4-Ethyl-phenoxymethyl)-1-methyl-6,7-dihydro-1H-oxazolo[2,3-f]purine-2,4-dione
43 46 1 0 0 
SMALL
USER_CHARGES


@<TRIPOS>ATOM
  1 O        1.3530    -0.1420    -1.3030 O.2   1 <1>  -0.5700 
  2 C        2.2330     0.6130    -0.9410 C.2   1 <1>   0.6900 
  3 N        3.4220     0.1580    -0.3990 N.am  1 <1>  -0.4230 
  4 N        2.0250     1.9550    -1.0830 N.am  1 <1>  -0.4900 
  5 C        4.3810     1.0940    -0.0140 C.2   1 <1>   0.2900 
  6 C        3.7160    -1.2860    -0.2100 C.3   1 <1>   0.0600 
  7 C        2.9350     2.8970    -0.7200 C.2   1 <1>   0.7150 
  8 N        5.5910     0.8410     0.5170 N.2   1 <1>  -0.5650 
  9 C        4.1430     2.4220    -0.1680 C.2   1 <1>  -0.2370 
 10 O        2.6890     4.0750    -0.8840 O.2   1 <1>  -0.5700 
 11 C        6.0520     2.0430     0.6760 C.2   1 <1>   0.2490 
 12 N        5.2560     3.0310     0.2970 N.pl3 1 <1>   0.0480 
 13 O        7.2280     2.4640     1.1420 O.3   1 <1>  -0.3430 
 14 C        5.8930     4.3160     0.5060 C.3   1 <1>   0.0960 
 15 C        7.3040     3.8780     0.9650 C.3   1 <1>   0.2000 
 16 C        8.3770     4.2180    -0.0820 C.3   1 <1>   0.1200 
 17 O        9.6700     3.9220     0.4070 O.3   1 <1>  -0.3630 
 18 C       10.3360     2.7790     0.0970 C.ar  1 <1>   0.0820 
 19 C       11.6860     2.7470     0.4090 C.ar  1 <1>  -0.1500 
 20 C        9.7530     1.6660    -0.5020 C.ar  1 <1>  -0.1500 
 21 C       12.4490     1.6280     0.1230 C.ar  1 <1>  -0.1500 
 22 C       10.5180     0.5490    -0.7860 C.ar  1 <1>  -0.1500 
 23 C       11.8700     0.5220    -0.4790 C.ar  1 <1>  -0.1430 
 24 C       12.7020    -0.7100    -0.7910 C.3   1 <1>  -0.0170 
 25 C       12.6330    -1.7090     0.3660 C.3   1 <1>  -0.2400 
 26 H        1.1450     2.2570    -1.4830 H     1 <1>   0.3700 
 27 H        2.8830    -1.8920    -0.5210 H     1 <1>   0.0800 
 28 H        3.9200    -1.4750     0.8290 H     1 <1>   0.0800 
 29 H        4.5820    -1.5520    -0.7900 H     1 <1>   0.0800 
 30 H        5.3790     4.8580     1.2790 H     1 <1>   0.0800 
 31 H        5.9050     4.8850    -0.4060 H     1 <1>   0.0800 
 32 H        7.5550     4.3280     1.9090 H     1 <1>   0.0800 
 33 H        8.3640     5.2770    -0.2700 H     1 <1>   0.0800 
 34 H        8.2100     3.7140    -1.0170 H     1 <1>   0.0800 
 35 H       12.1350     3.6030     0.8770 H     1 <1>   0.1500 
 36 H        8.7090     1.6380    -0.7440 H     1 <1>   0.1500 
 37 H       13.4950     1.6210     0.3740 H     1 <1>   0.1500 
 38 H       10.0530    -0.3060    -1.2440 H     1 <1>   0.1500 
 39 H       13.7250    -0.4250    -0.9620 H     1 <1>   0.0800 
 40 H       12.3370    -1.1740    -1.6910 H     1 <1>   0.0800 
 41 H       13.0090    -1.2580     1.2670 H     1 <1>   0.0800 
 42 H       13.2210    -2.5810     0.1400 H     1 <1>   0.0800 
 43 H       11.6140    -2.0110     0.5330 H     1 <1>   0.0800 
@<TRIPOS>BOND
  1   1   2  2   
  2   2   3  am  
  3   2   4  am  
  4   3   5  1   
  5   3   6  1   
  6   4   7  am  
  7   4  26  1   
  8   5   8  1   
  9   5   9  2   
 10   6  27  1   
 11   6  28  1   
 12   6  29  1   
 13   7   9  1   
 14   7  10  2   
 15   8  11  2   
 16   9  12  1   
 17  11  12  1   
 18  11  13  1   
 19  12  14  1   
 20  13  15  1   
 21  14  15  1   
 22  14  30  1   
 23  14  31  1   
 24  15  16  1   
 25  15  32  1   
 26  16  17  1   
 27  16  33  1   
 28  16  34  1   
 29  17  18  1   
 30  18  19  ar  
 31  18  20  ar  
 32  19  21  ar  
 33  19  35  1   
 34  20  22  ar  
 35  20  36  1   
 36  21  23  ar  
 37  21  37  1   
 38  22  23  ar  
 39  22  38  1   
 40  23  24  1   
 41  24  25  1   
 42  24  39  1   
 43  24  40  1   
 44  25  41  1   
 45  25  42  1   
 46  25  43  1   
@<TRIPOS>SUBSTRUCTURE
  1 ****  11 GROUP 4 **** **** 0

# MOE 2024.06 (io_trps.svl 2023.06)
