@<TRIPOS>MOLECULE
3-Cyclohexyl-1-isopropyl-1-[3-(4-methoxy-phenyl)-[1,2,4]oxadiazol-5-ylmethyl]-ur
55 57 1 0 0 
SMALL
USER_CHARGES


@<TRIPOS>ATOM
  1 O        0.2870    -0.2730    -0.2430 O.2   1 <1>  -0.5700 
  2 C        0.3660     0.8750    -0.6390 C.2   1 <1>   0.6900 
  3 N        1.5040     1.3270    -1.2490 N.am  1 <1>  -0.6600 
  4 N       -0.6720     1.7240    -0.4550 N.am  1 <1>  -0.7300 
  5 C        1.4920     2.5180    -2.1490 C.3   1 <1>   0.2200 
  6 C        2.7740     0.5390    -1.0710 C.3   1 <1>   0.3200 
  7 C       -1.9210     1.4060     0.2510 C.3   1 <1>   0.2200 
  8 C        2.3440     2.3110    -3.4030 C.3   1 <1>  -0.2400 
  9 C        1.9300     3.7670    -1.3830 C.3   1 <1>  -0.2400 
 10 C        3.8580     1.3240    -0.3460 C.2   1 <1>   0.2980 
 11 C       -3.1030     1.9060    -0.5850 C.3   1 <1>  -0.1600 
 12 C       -1.8930     2.0730     1.6300 C.3   1 <1>  -0.1600 
 13 O        3.6240     1.7290     0.8740 O.3   1 <1>  -0.0190 
 14 N        4.9970     1.6360    -0.8150 N.2   1 <1>  -0.5650 
 15 C       -4.4330     1.6990     0.1540 C.3   1 <1>  -0.1600 
 16 C       -3.2200     1.8670     2.3740 C.3   1 <1>  -0.1600 
 17 N        4.7050     2.3610     1.2100 N.2   1 <1>  -0.4100 
 18 C        5.5190     2.3090     0.2160 C.2   1 <1>   0.4620 
 19 C       -4.4080     2.3630     1.5380 C.3   1 <1>  -0.1600 
 20 C        6.8470     2.8980     0.1750 C.ar  1 <1>   0.0540 
 21 C        7.3650     3.5950     1.2710 C.ar  1 <1>  -0.1500 
 22 C        7.6630     2.7980    -0.9540 C.ar  1 <1>  -0.1500 
 23 C        8.6260     4.1620     1.2450 C.ar  1 <1>  -0.1500 
 24 C        8.9240     3.3620    -0.9880 C.ar  1 <1>  -0.1500 
 25 C        9.4180     4.0480     0.1080 C.ar  1 <1>   0.0820 
 26 O       10.6630     4.5710    -0.0040 O.3   1 <1>  -0.3620 
 27 C       11.2590     5.2840     1.0560 C.3   1 <1>   0.0400 
 28 H       -0.4980     2.7110    -0.6140 H     1 <1>   0.3700 
 29 H        0.4800     2.6730    -2.4880 H     1 <1>   0.0800 
 30 H        3.1430     0.2240    -2.0290 H     1 <1>   0.0800 
 31 H        2.5930    -0.3540    -0.5000 H     1 <1>   0.0800 
 32 H       -2.0070     0.3380     0.3770 H     1 <1>   0.0800 
 33 H        3.3910     2.2670    -3.1640 H     1 <1>   0.0800 
 34 H        2.1960     3.1350    -4.0770 H     1 <1>   0.0800 
 35 H        2.0460     1.4100    -3.9090 H     1 <1>   0.0800 
 36 H        2.9790     3.7360    -1.1550 H     1 <1>   0.0800 
 37 H        1.3750     3.8650    -0.4680 H     1 <1>   0.0800 
 38 H        1.7500     4.6410    -1.9840 H     1 <1>   0.0800 
 39 H       -3.1280     1.3700    -1.5180 H     1 <1>   0.0800 
 40 H       -2.9790     2.9540    -0.7950 H     1 <1>   0.0800 
 41 H       -1.7140     3.1280     1.5180 H     1 <1>   0.0800 
 42 H       -1.0910     1.6500     2.2100 H     1 <1>   0.0800 
 43 H       -4.6150     0.6440     0.2690 H     1 <1>   0.0800 
 44 H       -5.2390     2.1100    -0.4300 H     1 <1>   0.0800 
 45 H       -3.1930     2.3920     3.3130 H     1 <1>   0.0800 
 46 H       -3.3480     0.8190     2.5870 H     1 <1>   0.0800 
 47 H       -5.3270     2.1500     2.0560 H     1 <1>   0.0800 
 48 H       -4.3380     3.4310     1.4190 H     1 <1>   0.0800 
 49 H        6.7660     3.6930     2.1600 H     1 <1>   0.1500 
 50 H        7.3050     2.2700    -1.8210 H     1 <1>   0.1500 
 51 H        8.9730     4.6860     2.1150 H     1 <1>   0.1500 
 52 H        9.5370     3.2740    -1.8670 H     1 <1>   0.1500 
 53 H       12.2360     5.5980     0.7390 H     1 <1>   0.0800 
 54 H       11.3420     4.6350     1.9100 H     1 <1>   0.0800 
 55 H       10.6540     6.1450     1.2820 H     1 <1>   0.0800 
@<TRIPOS>BOND
  1   1   2  2   
  2   2   3  am  
  3   2   4  am  
  4   3   5  1   
  5   3   6  1   
  6   4   7  1   
  7   4  28  1   
  8   5   8  1   
  9   5   9  1   
 10   5  29  1   
 11   6  10  1   
 12   6  30  1   
 13   6  31  1   
 14   7  11  1   
 15   7  12  1   
 16   7  32  1   
 17   8  33  1   
 18   8  34  1   
 19   8  35  1   
 20   9  36  1   
 21   9  37  1   
 22   9  38  1   
 23  10  13  1   
 24  10  14  2   
 25  11  15  1   
 26  11  39  1   
 27  11  40  1   
 28  12  16  1   
 29  12  41  1   
 30  12  42  1   
 31  13  17  1   
 32  14  18  1   
 33  15  19  1   
 34  15  43  1   
 35  15  44  1   
 36  16  19  1   
 37  16  45  1   
 38  16  46  1   
 39  17  18  2   
 40  18  20  1   
 41  19  47  1   
 42  19  48  1   
 43  20  21  ar  
 44  20  22  ar  
 45  21  23  ar  
 46  21  49  1   
 47  22  24  ar  
 48  22  50  1   
 49  23  25  ar  
 50  23  51  1   
 51  24  25  ar  
 52  24  52  1   
 53  25  26  1   
 54  26  27  1   
 55  27  53  1   
 56  27  54  1   
 57  27  55  1   
@<TRIPOS>SUBSTRUCTURE
  1 ****  13 GROUP 4 **** **** 0

# MOE 2024.06 (io_trps.svl 2023.06)
