@<TRIPOS>MOLECULE
3-Methyl-4-(2-morpholin-4-yl-2-oxo-ethoxy)-N-propyl-benzenesulfonamide
48 49 1 0 0 
SMALL
USER_CHARGES


@<TRIPOS>ATOM
  1 S        0.0900    -0.2300     0.1330 S.o2  1 <1>   1.4470 
  2 O        0.0250    -0.4280     1.5640 O.2   1 <1>  -0.6500 
  3 O       -0.2230    -1.3110    -0.7730 O.2   1 <1>  -0.6500 
  4 N       -1.0080     0.9750    -0.2700 N.am  1 <1>  -0.9140 
  5 C        1.6870     0.5040    -0.3060 C.ar  1 <1>  -0.0090 
  6 C       -2.2290     1.0040     0.5210 C.3   1 <1>   0.1960 
  7 C        2.0540     1.7520     0.1820 C.ar  1 <1>  -0.1500 
  8 C        2.5850    -0.1620    -1.1310 C.ar  1 <1>  -0.1500 
  9 C       -3.1470    -0.1680     0.1570 C.3   1 <1>  -0.1600 
 10 C        3.2740     2.3280    -0.1330 C.ar  1 <1>  -0.1430 
 11 C        3.8080     0.3940    -1.4560 C.ar  1 <1>  -0.1500 
 12 C       -4.4920    -0.0640     0.8850 C.3   1 <1>  -0.2400 
 13 C        4.1630     1.6410    -0.9510 C.ar  1 <1>   0.0830 
 14 C        3.6260     3.7020     0.4210 C.3   1 <1>  -0.0970 
 15 O        5.3560     2.2260    -1.2150 O.3   1 <1>  -0.3630 
 16 C        6.4420     1.4830    -1.7480 C.3   1 <1>   0.1810 
 17 C        7.7500     2.2590    -1.6340 C.2   1 <1>   0.5690 
 18 O        8.3740     2.4350    -2.6550 O.2   1 <1>  -0.5700 
 19 N        8.2170     2.7110    -0.4220 N.am  1 <1>  -0.6600 
 20 C        9.4570     3.5390    -0.3250 C.3   1 <1>   0.1400 
 21 C        7.5370     2.5180     0.8960 C.3   1 <1>   0.1400 
 22 C       10.3520     3.0550     0.8270 C.3   1 <1>   0.1200 
 23 C        8.5460     2.1020     1.9800 C.3   1 <1>   0.1200 
 24 O        9.6260     2.9900     2.0230 O.3   1 <1>  -0.5600 
 25 H       -1.2700     0.7510    -1.2280 H     1 <1>   0.4200 
 26 H       -2.7430     1.9270     0.3120 H     1 <1>   0.0800 
 27 H       -1.9960     0.9920     1.5740 H     1 <1>   0.0800 
 28 H        1.3630     2.2760     0.8210 H     1 <1>   0.1500 
 29 H        2.3210    -1.1300    -1.5250 H     1 <1>   0.1500 
 30 H       -2.6810    -1.0980     0.4340 H     1 <1>   0.0800 
 31 H       -3.3250    -0.1750    -0.9040 H     1 <1>   0.0800 
 32 H        4.4640    -0.1540    -2.1050 H     1 <1>   0.1500 
 33 H       -4.3430    -0.0770     1.9510 H     1 <1>   0.0800 
 34 H       -5.1170    -0.8990     0.6200 H     1 <1>   0.0800 
 35 H       -5.0010     0.8440     0.6150 H     1 <1>   0.0800 
 36 H        2.7920     4.1390     0.9390 H     1 <1>   0.0800 
 37 H        3.9090     4.3580    -0.3820 H     1 <1>   0.0800 
 38 H        4.4510     3.6190     1.1050 H     1 <1>   0.0800 
 39 H        6.2310     1.2800    -2.7820 H     1 <1>   0.0800 
 40 H        6.5310     0.5610    -1.2050 H     1 <1>   0.0800 
 41 H        9.1820     4.5650    -0.1530 H     1 <1>   0.0800 
 42 H       10.0140     3.4970    -1.2450 H     1 <1>   0.0800 
 43 H        6.7720     1.7660     0.8310 H     1 <1>   0.0800 
 44 H        7.0680     3.4420     1.1870 H     1 <1>   0.0800 
 45 H       11.1680     3.7400     0.9750 H     1 <1>   0.0800 
 46 H       10.7520     2.0800     0.6100 H     1 <1>   0.0800 
 47 H        8.9220     1.1120     1.7880 H     1 <1>   0.0800 
 48 H        8.0760     2.1120     2.9480 H     1 <1>   0.0800 
@<TRIPOS>BOND
  1   1   2  2   
  2   1   3  2   
  3   1   4  am  
  4   1   5  1   
  5   4   6  1   
  6   4  25  1   
  7   5   7  ar  
  8   5   8  ar  
  9   6   9  1   
 10   6  26  1   
 11   6  27  1   
 12   7  10  ar  
 13   7  28  1   
 14   8  11  ar  
 15   8  29  1   
 16   9  12  1   
 17   9  30  1   
 18   9  31  1   
 19  10  13  ar  
 20  10  14  1   
 21  11  13  ar  
 22  11  32  1   
 23  12  33  1   
 24  12  34  1   
 25  12  35  1   
 26  13  15  1   
 27  14  36  1   
 28  14  37  1   
 29  14  38  1   
 30  15  16  1   
 31  16  17  1   
 32  16  39  1   
 33  16  40  1   
 34  17  18  2   
 35  17  19  am  
 36  19  20  1   
 37  19  21  1   
 38  20  22  1   
 39  20  41  1   
 40  20  42  1   
 41  21  23  1   
 42  21  43  1   
 43  21  44  1   
 44  22  24  1   
 45  22  45  1   
 46  22  46  1   
 47  23  24  1   
 48  23  47  1   
 49  23  48  1   
@<TRIPOS>SUBSTRUCTURE
  1 ****  13 GROUP 4 **** **** 0

# MOE 2024.06 (io_trps.svl 2023.06)
