@<TRIPOS>MOLECULE
1-[3-(3,4-Dimethoxy-phenyl)-[1,2,4]oxadiazol-5-ylmethyl]-1-isopropyl-3-o-tolyl-u
56 58 1 0 0 
SMALL
USER_CHARGES


@<TRIPOS>ATOM
  1 O       -0.0180    -0.1330    -1.1820 O.2   1 <1>  -0.5700 
  2 C        0.1760     0.9190    -0.6050 C.2   1 <1>   0.6900 
  3 N        1.3590     1.1350     0.0520 N.am  1 <1>  -0.6600 
  4 N       -0.7530     1.9180    -0.6220 N.am  1 <1>  -0.5470 
  5 C        1.4410     2.0540     1.2260 C.3   1 <1>   0.2200 
  6 C        2.5500     0.2890    -0.3180 C.3   1 <1>   0.3200 
  7 C       -2.0650     1.9760    -1.1160 C.ar  1 <1>   0.1170 
  8 C        2.0190     3.4060     0.8050 C.3   1 <1>  -0.2400 
  9 C        2.2350     1.4490     2.3860 C.3   1 <1>  -0.2400 
 10 C        3.7430     1.1110    -0.7800 C.2   1 <1>   0.2980 
 11 C       -2.6050     3.2070    -1.4980 C.ar  1 <1>  -0.1430 
 12 C       -2.8590     0.8380    -1.2150 C.ar  1 <1>  -0.1500 
 13 O        3.6090     1.8650    -1.8390 O.3   1 <1>  -0.0190 
 14 N        4.8880     1.1450    -0.2300 N.2   1 <1>  -0.5650 
 15 C       -3.9090     3.2740    -1.9640 C.ar  1 <1>  -0.1500 
 16 C       -1.7850     4.4900    -1.4180 C.3   1 <1>  -0.0970 
 17 C       -4.1570     0.9110    -1.6830 C.ar  1 <1>  -0.1500 
 18 N        4.7670     2.4340    -1.9710 N.2   1 <1>  -0.4100 
 19 C        5.5270     2.0100    -1.0230 C.2   1 <1>   0.4620 
 20 C       -4.6850     2.1330    -2.0580 C.ar  1 <1>  -0.1500 
 21 C        6.9100     2.4030    -0.8070 C.ar  1 <1>   0.0540 
 22 C        7.6660     1.8930     0.2480 C.ar  1 <1>  -0.1500 
 23 C        7.5440     3.3130    -1.6530 C.ar  1 <1>  -0.1500 
 24 C        8.9830     2.2570     0.4630 C.ar  1 <1>   0.0820 
 25 C        8.8560     3.7010    -1.4530 C.ar  1 <1>  -0.1500 
 26 O        9.5800     1.6560     1.5310 O.3   1 <1>  -0.3620 
 27 C        9.5960     3.1890    -0.3900 C.ar  1 <1>   0.0820 
 28 C       10.9450     1.3040     1.4940 C.3   1 <1>   0.0400 
 29 O       10.8800     3.5870    -0.1590 O.3   1 <1>  -0.3630 
 30 C       11.4800     4.6430    -0.8770 C.3   1 <1>   0.0400 
 31 H       -0.3670     2.8120    -0.3460 H     1 <1>   0.3700 
 32 H        0.4410     2.2210     1.5940 H     1 <1>   0.0800 
 33 H        2.3020    -0.3840    -1.1190 H     1 <1>   0.0800 
 34 H        2.8370    -0.3170     0.5210 H     1 <1>   0.0800 
 35 H        3.0670     3.3290     0.5840 H     1 <1>   0.0800 
 36 H        1.9070     4.1120     1.6080 H     1 <1>   0.0800 
 37 H        1.5060     3.7900    -0.0570 H     1 <1>   0.0800 
 38 H        3.2780     1.3580     2.1450 H     1 <1>   0.0800 
 39 H        1.8360     0.4850     2.6460 H     1 <1>   0.0800 
 40 H        2.1520     2.0860     3.2480 H     1 <1>   0.0800 
 41 H       -2.4620    -0.1170    -0.9220 H     1 <1>   0.1500 
 42 H       -4.3340     4.2170    -2.2610 H     1 <1>   0.1500 
 43 H       -0.8760     4.3810    -1.9820 H     1 <1>   0.0800 
 44 H       -1.5460     4.7120    -0.3940 H     1 <1>   0.0800 
 45 H       -2.3320     5.3210    -1.8250 H     1 <1>   0.0800 
 46 H       -4.7550     0.0190    -1.7540 H     1 <1>   0.1500 
 47 H       -5.6950     2.1940    -2.4220 H     1 <1>   0.1500 
 48 H        7.2200     1.1870     0.9250 H     1 <1>   0.1500 
 49 H        6.9980     3.7270    -2.4830 H     1 <1>   0.1500 
 50 H        9.2810     4.4070    -2.1400 H     1 <1>   0.1500 
 51 H       11.1110     0.5300     2.2210 H     1 <1>   0.0800 
 52 H       11.5330     2.1690     1.7440 H     1 <1>   0.0800 
 53 H       11.1910     0.9460     0.5100 H     1 <1>   0.0800 
 54 H       12.4580     4.8130    -0.4630 H     1 <1>   0.0800 
 55 H       10.8790     5.5280    -0.7650 H     1 <1>   0.0800 
 56 H       11.5660     4.3600    -1.9100 H     1 <1>   0.0800 
@<TRIPOS>BOND
  1   1   2  2   
  2   2   3  am  
  3   2   4  am  
  4   3   5  1   
  5   3   6  1   
  6   4   7  1   
  7   4  31  1   
  8   5   8  1   
  9   5   9  1   
 10   5  32  1   
 11   6  10  1   
 12   6  33  1   
 13   6  34  1   
 14   7  11  ar  
 15   7  12  ar  
 16   8  35  1   
 17   8  36  1   
 18   8  37  1   
 19   9  38  1   
 20   9  39  1   
 21   9  40  1   
 22  10  13  1   
 23  10  14  2   
 24  11  15  ar  
 25  11  16  1   
 26  12  17  ar  
 27  12  41  1   
 28  13  18  1   
 29  14  19  1   
 30  15  20  ar  
 31  15  42  1   
 32  16  43  1   
 33  16  44  1   
 34  16  45  1   
 35  17  20  ar  
 36  17  46  1   
 37  18  19  2   
 38  19  21  1   
 39  20  47  1   
 40  21  22  ar  
 41  21  23  ar  
 42  22  24  ar  
 43  22  48  1   
 44  23  25  ar  
 45  23  49  1   
 46  24  26  1   
 47  24  27  ar  
 48  25  27  ar  
 49  25  50  1   
 50  26  28  1   
 51  27  29  1   
 52  28  51  1   
 53  28  52  1   
 54  28  53  1   
 55  29  30  1   
 56  30  54  1   
 57  30  55  1   
 58  30  56  1   
@<TRIPOS>SUBSTRUCTURE
  1 ****  10 GROUP 4 **** **** 0

# MOE 2024.06 (io_trps.svl 2023.06)
