@<TRIPOS>MOLECULE
4-(4-Dimethylamino-phenyl)-2,7-dimethyl-5-oxo-1,4,5,6,7,8-hexahydro-quinoline-3-
62 65 1 0 0 
SMALL
USER_CHARGES


@<TRIPOS>ATOM
  1 O        0.1010    -0.9560    -2.2580 O.2   1 <1>  -0.5700 
  2 C        0.1370    -1.7990    -1.3930 C.2   1 <1>   0.4950 
  3 C        1.3290    -2.2760    -0.7760 C.2   1 <1>  -0.1240 
  4 C       -1.1860    -2.4290    -0.9870 C.3   1 <1>  -0.0990 
  5 C        1.3550    -3.3060     0.1060 C.2   1 <1>  -0.0380 
  6 C        2.6310    -1.5670    -1.1550 C.3   1 <1>   0.3400 
  7 C       -1.1330    -3.0490     0.4220 C.3   1 <1>  -0.0800 
  8 N        2.5340    -3.8010     0.6100 N.pl3 1 <1>  -0.6000 
  9 C        0.0770    -3.9880     0.5690 C.3   1 <1>  -0.0220 
 10 C        3.8850    -2.2950    -0.6610 C.2   1 <1>  -0.1240 
 11 C        2.6390    -0.1660    -0.5400 C.ar  1 <1>  -0.1440 
 12 C       -2.4430    -3.7800     0.7480 C.3   1 <1>  -0.2400 
 13 C        3.7670    -3.3530     0.1860 C.2   1 <1>  -0.0380 
 14 C        5.0900    -1.7100    -1.1580 C.2   1 <1>   0.6160 
 15 C        2.7480     0.9600    -1.3440 C.ar  1 <1>  -0.1500 
 16 C        2.5540    -0.0030     0.8370 C.ar  1 <1>  -0.1500 
 17 C        4.9290    -4.1640     0.7390 C.3   1 <1>  -0.1020 
 18 O        5.2330    -1.5010    -2.3480 O.2   1 <1>  -0.5700 
 19 N        6.0740    -1.3690    -0.2700 N.am  1 <1>  -0.5470 
 20 C        2.7790     2.2220    -0.7800 C.ar  1 <1>  -0.1500 
 21 C        2.5840     1.2610     1.3960 C.ar  1 <1>  -0.1500 
 22 C        7.3550    -0.8840    -0.3920 C.ar  1 <1>   0.4270 
 23 C        2.6980     2.3880     0.5970 C.ar  1 <1>   0.1000 
 24 N        8.0000    -0.8690     0.7650 N.ar  1 <1>  -0.6200 
 25 C        7.9260    -0.4510    -1.5880 C.ar  1 <1>  -0.1500 
 26 N        2.7400     3.6470     1.1860 N.pl3 1 <1>  -0.8380 
 27 C        9.2430    -0.4170     0.7320 C.ar  1 <1>   0.1600 
 28 C        9.2200     0.0150    -1.6050 C.ar  1 <1>  -0.1500 
 29 C        1.7210     4.6310     0.7400 C.3   1 <1>   0.1290 
 30 C        4.0970     4.2140     1.3890 C.3   1 <1>   0.1290 
 31 C        9.8990     0.0310    -0.4050 C.ar  1 <1>  -0.1430 
 32 C       11.3320     0.5340    -0.3510 C.3   1 <1>  -0.0970 
 33 H       -1.4300    -3.1820    -1.7130 H     1 <1>   0.0800 
 34 H       -1.9500    -1.6740    -1.0200 H     1 <1>   0.0800 
 35 H        2.6720    -1.5000    -2.2290 H     1 <1>   0.0800 
 36 H       -1.0120    -2.2440     1.1300 H     1 <1>   0.0800 
 37 H        2.5000    -4.5870     1.2700 H     1 <1>   0.4000 
 38 H        0.1730    -4.2690     1.6030 H     1 <1>   0.0800 
 39 H       -0.0690    -4.8820    -0.0110 H     1 <1>   0.0800 
 40 H       -2.6070    -4.5930     0.0620 H     1 <1>   0.0800 
 41 H       -3.2750    -3.1010     0.6790 H     1 <1>   0.0800 
 42 H       -2.4130    -4.1740     1.7480 H     1 <1>   0.0800 
 43 H        2.8120     0.8550    -2.4130 H     1 <1>   0.1500 
 44 H        2.4660    -0.8630     1.4780 H     1 <1>   0.1500 
 45 H        4.7390    -5.2140     0.5990 H     1 <1>   0.0800 
 46 H        5.0460    -3.9700     1.7900 H     1 <1>   0.0800 
 47 H        5.8530    -3.9370     0.2400 H     1 <1>   0.0800 
 48 H        5.8260    -1.4980     0.7060 H     1 <1>   0.3700 
 49 H        2.8690     3.0870    -1.4080 H     1 <1>   0.1500 
 50 H        2.5190     1.3920     2.4600 H     1 <1>   0.1500 
 51 H        7.3630    -0.4760    -2.5000 H     1 <1>   0.1500 
 52 H        9.7710    -0.4020     1.6700 H     1 <1>   0.1500 
 53 H        9.6770     0.3530    -2.5190 H     1 <1>   0.1500 
 54 H        0.8090     4.1180     0.4840 H     1 <1>   0.0800 
 55 H        2.0750     5.1680    -0.1230 H     1 <1>   0.0800 
 56 H        1.5160     5.3250     1.5350 H     1 <1>   0.0800 
 57 H        4.7880     3.4240     1.6280 H     1 <1>   0.0800 
 58 H        4.0790     4.9180     2.2020 H     1 <1>   0.0800 
 59 H        4.4290     4.7070     0.4920 H     1 <1>   0.0800 
 60 H       11.7570     0.3850     0.6260 H     1 <1>   0.0800 
 61 H       11.3590     1.5840    -0.5820 H     1 <1>   0.0800 
 62 H       11.9330     0.0050    -1.0690 H     1 <1>   0.0800 
@<TRIPOS>BOND
  1   1   2  2   
  2   2   3  1   
  3   2   4  1   
  4   3   5  2   
  5   3   6  1   
  6   4   7  1   
  7   4  33  1   
  8   4  34  1   
  9   5   8  1   
 10   5   9  1   
 11   6  10  1   
 12   6  11  1   
 13   6  35  1   
 14   7   9  1   
 15   7  12  1   
 16   7  36  1   
 17   8  13  1   
 18   8  37  1   
 19   9  38  1   
 20   9  39  1   
 21  10  13  2   
 22  10  14  1   
 23  11  15  ar  
 24  11  16  ar  
 25  12  40  1   
 26  12  41  1   
 27  12  42  1   
 28  13  17  1   
 29  14  18  2   
 30  14  19  am  
 31  15  20  ar  
 32  15  43  1   
 33  16  21  ar  
 34  16  44  1   
 35  17  45  1   
 36  17  46  1   
 37  17  47  1   
 38  19  22  1   
 39  19  48  1   
 40  20  23  ar  
 41  20  49  1   
 42  21  23  ar  
 43  21  50  1   
 44  22  24  ar  
 45  22  25  ar  
 46  23  26  1   
 47  24  27  ar  
 48  25  28  ar  
 49  25  51  1   
 50  26  29  1   
 51  26  30  1   
 52  27  31  ar  
 53  27  52  1   
 54  28  31  ar  
 55  28  53  1   
 56  29  54  1   
 57  29  55  1   
 58  29  56  1   
 59  30  57  1   
 60  30  58  1   
 61  30  59  1   
 62  31  32  1   
 63  32  60  1   
 64  32  61  1   
 65  32  62  1   
@<TRIPOS>SUBSTRUCTURE
  1 ****  11 GROUP 4 **** **** 0

# MOE 2024.06 (io_trps.svl 2023.06)
