@<TRIPOS>MOLECULE
1-(Furan-2-carbonyl)-piperidine-4-carboxylic acid (4-chloro-2,5-dimethoxy-phenyl
48 50 1 0 0 
SMALL
USER_CHARGES


@<TRIPOS>ATOM
  1 CL      -0.6370    -1.8630     3.3400 Cl    1 <1>  -0.1770 
  2 C       -1.9170    -2.4890     2.3190 C.ar  1 <1>   0.1770 
  3 C       -2.2710    -1.8280     1.1490 C.ar  1 <1>   0.0830 
  4 C       -2.5520    -3.6490     2.7170 C.ar  1 <1>  -0.1500 
  5 O       -1.5980    -0.6880     0.8240 O.3   1 <1>  -0.3630 
  6 C       -3.2930    -2.3590     0.3680 C.ar  1 <1>  -0.1500 
  7 C       -3.5710    -4.1720     1.9300 C.ar  1 <1>   0.0830 
  8 C       -1.9000     0.0300    -0.3530 C.3   1 <1>   0.0400 
  9 C       -3.9480    -3.5270     0.7460 C.ar  1 <1>   0.1170 
 10 O       -4.2470    -5.3170     2.2570 O.3   1 <1>  -0.3630 
 11 N       -4.9860    -4.1070    -0.0070 N.am  1 <1>  -0.5470 
 12 C       -3.9120    -6.0620     3.4080 C.3   1 <1>   0.0400 
 13 C       -5.5950    -3.7930    -1.1880 C.2   1 <1>   0.5690 
 14 O       -5.3020    -2.8370    -1.8640 O.2   1 <1>  -0.5700 
 15 C       -6.7160    -4.7080    -1.6730 C.3   1 <1>  -0.0190 
 16 C       -7.9370    -4.6490    -0.7330 C.3   1 <1>  -0.1600 
 17 C       -6.2300    -6.1610    -1.8560 C.3   1 <1>  -0.1600 
 18 C       -9.0480    -5.6060    -1.1750 C.3   1 <1>   0.1400 
 19 C       -7.3720    -7.0840    -2.2860 C.3   1 <1>   0.1400 
 20 N       -8.4820    -6.9750    -1.3030 N.am  1 <1>  -0.6600 
 21 C       -8.7270    -7.9760    -0.3800 C.2   1 <1>   0.7150 
 22 O       -7.8570    -8.8090    -0.1900 O.2   1 <1>  -0.5700 
 23 C       -9.9810    -8.0490     0.3420 C.2   1 <1>   0.0550 
 24 O      -10.0200    -8.4260     1.6180 O.3   1 <1>  -0.2800 
 25 C      -11.2570    -7.7880    -0.0610 C.2   1 <1>  -0.1500 
 26 C      -11.2660    -8.4110     2.0310 C.2   1 <1>  -0.0100 
 27 C      -12.0880    -8.0210     1.0350 C.2   1 <1>  -0.1500 
 28 H       -2.2340    -4.1130     3.6300 H     1 <1>   0.1500 
 29 H       -3.5880    -1.8710    -0.5380 H     1 <1>   0.1500 
 30 H       -1.2460     0.8810    -0.4020 H     1 <1>   0.0800 
 31 H       -2.9240     0.3570    -0.3110 H     1 <1>   0.0800 
 32 H       -1.7350    -0.6070    -1.2050 H     1 <1>   0.0800 
 33 H       -5.3360    -4.9560     0.4440 H     1 <1>   0.3700 
 34 H       -4.5580    -6.9210     3.4500 H     1 <1>   0.0800 
 35 H       -4.0640    -5.4490     4.2790 H     1 <1>   0.0800 
 36 H       -2.8870    -6.3810     3.3340 H     1 <1>   0.0800 
 37 H       -7.0280    -4.3450    -2.6380 H     1 <1>   0.0800 
 38 H       -8.3240    -3.6450    -0.7110 H     1 <1>   0.0800 
 39 H       -7.6470    -4.9080     0.2710 H     1 <1>   0.0800 
 40 H       -5.8200    -6.5450    -0.9380 H     1 <1>   0.0800 
 41 H       -5.4520    -6.1910    -2.5990 H     1 <1>   0.0800 
 42 H       -9.4470    -5.2980    -2.1270 H     1 <1>   0.0800 
 43 H       -9.8440    -5.5800    -0.4520 H     1 <1>   0.0800 
 44 H       -7.0190    -8.1010    -2.3490 H     1 <1>   0.0800 
 45 H       -7.7330    -6.7990    -3.2600 H     1 <1>   0.0800 
 46 H      -11.5840    -7.4700    -1.0350 H     1 <1>   0.1500 
 47 H      -11.4830    -8.6940     3.0470 H     1 <1>   0.1500 
 48 H      -13.1580    -7.9100     1.0530 H     1 <1>   0.1500 
@<TRIPOS>BOND
  1   1   2  1   
  2   2   3  ar  
  3   2   4  ar  
  4   3   5  1   
  5   3   6  ar  
  6   4   7  ar  
  7   4  28  1   
  8   5   8  1   
  9   6   9  ar  
 10   6  29  1   
 11   7   9  ar  
 12   7  10  1   
 13   8  30  1   
 14   8  31  1   
 15   8  32  1   
 16   9  11  1   
 17  10  12  1   
 18  11  13  am  
 19  11  33  1   
 20  12  34  1   
 21  12  35  1   
 22  12  36  1   
 23  13  14  2   
 24  13  15  1   
 25  15  16  1   
 26  15  17  1   
 27  15  37  1   
 28  16  18  1   
 29  16  38  1   
 30  16  39  1   
 31  17  19  1   
 32  17  40  1   
 33  17  41  1   
 34  18  20  1   
 35  18  42  1   
 36  18  43  1   
 37  19  20  1   
 38  19  44  1   
 39  19  45  1   
 40  20  21  am  
 41  21  22  2   
 42  21  23  1   
 43  23  24  1   
 44  23  25  2   
 45  24  26  1   
 46  25  27  1   
 47  25  46  1   
 48  26  27  2   
 49  26  47  1   
 50  27  48  1   
@<TRIPOS>SUBSTRUCTURE
  1 ****  11 GROUP 4 **** **** 0

# MOE 2024.06 (io_trps.svl 2023.06)
