@<TRIPOS>MOLECULE
3-[2-(1-Bicyclo[2.2.1]hept-5-en-2-yl-1H-tetrazol-5-ylsulfanyl)-acetylamino]-benz
42 45 1 0 0 
SMALL
USER_CHARGES


@<TRIPOS>ATOM
  1 S        0.6570     0.2850    -0.3200 S.3   1 <1>  -0.2860 
  2 C        1.7660     0.2500     1.0910 C.2   1 <1>   0.2420 
  3 C       -0.9460    -0.2720     0.4280 C.3   1 <1>   0.1310 
  4 N        1.8880    -0.7530     1.8690 N.2   1 <1>  -0.3380 
  5 N        2.5390     1.2570     1.4530 N.pl3 1 <1>   0.3140 
  6 C       -2.0960    -0.2450    -0.5730 C.2   1 <1>   0.5690 
  7 N        2.7980    -0.3670     2.7600 N.2   1 <1>   0.0000 
  8 N        3.1960     0.8380     2.5270 N.2   1 <1>  -0.4180 
  9 C        2.5600     2.6190     0.8510 C.3   1 <1>   0.1760 
 10 O       -2.7530    -1.2480    -0.7010 O.2   1 <1>  -0.5700 
 11 N       -2.4300     0.8460    -1.3230 N.am  1 <1>  -0.5470 
 12 C        3.2980     2.6580    -0.5050 C.3   1 <1>   0.0580 
 13 C        3.2870     3.7190     1.6810 C.3   1 <1>  -0.1600 
 14 C       -1.8450     2.1100    -1.4710 C.ar  1 <1>   0.1170 
 15 C        4.7290     2.2090    -0.2610 C.2   1 <1>  -0.2880 
 16 C        3.5500     4.1590    -0.6210 C.3   1 <1>  -0.1600 
 17 C        4.3250     4.2720     0.6880 C.3   1 <1>   0.0580 
 18 C       -1.3790     2.8490    -0.3920 C.ar  1 <1>  -0.1500 
 19 C       -1.7200     2.6460    -2.7460 C.ar  1 <1>  -0.1500 
 20 C        5.3290     3.1590     0.4500 C.2   1 <1>  -0.2880 
 21 C       -0.7390     4.0780    -0.5510 C.ar  1 <1>  -0.1790 
 22 C       -1.1210     3.8770    -2.9340 C.ar  1 <1>  -0.1500 
 23 C       -0.1730     4.7830     0.5890 C.2   1 <1>   0.9790 
 24 C       -0.6320     4.5800    -1.8480 C.ar  1 <1>  -0.1500 
 25 O       -0.2110     4.2710     1.7220 O.co2 1 <1>  -0.9000 
 26 O        0.4540     5.8440     0.4380 O.co2 1 <1>  -0.9000 
 27 H       -1.1500     0.3730     1.2610 H     1 <1>   0.0800 
 28 H       -0.7870    -1.2730     0.7840 H     1 <1>   0.0800 
 29 H        1.5440     2.9130     0.6960 H     1 <1>   0.0800 
 30 H       -3.1910     0.6400    -1.9680 H     1 <1>   0.3700 
 31 H        2.7890     2.2300    -1.3500 H     1 <1>   0.0800 
 32 H        3.7610     3.3520     2.5730 H     1 <1>   0.0800 
 33 H        2.5830     4.4920     1.9420 H     1 <1>   0.0800 
 34 H        5.0810     1.2560    -0.6170 H     1 <1>   0.1500 
 35 H        4.1560     4.4080    -1.4750 H     1 <1>   0.0800 
 36 H        2.6460     4.7460    -0.6240 H     1 <1>   0.0800 
 37 H        4.7310     5.2460     0.9000 H     1 <1>   0.0800 
 38 H       -1.5020     2.4740     0.6070 H     1 <1>   0.1500 
 39 H       -2.0850     2.0970    -3.5940 H     1 <1>   0.1500 
 40 H        6.3250     3.2220     0.8540 H     1 <1>   0.1500 
 41 H       -1.0270     4.2900    -3.9220 H     1 <1>   0.1500 
 42 H       -0.1530     5.5350    -1.9930 H     1 <1>   0.1500 
@<TRIPOS>BOND
  1   1   2  1   
  2   1   3  1   
  3   2   4  2   
  4   2   5  1   
  5   3   6  1   
  6   3  27  1   
  7   3  28  1   
  8   4   7  1   
  9   5   8  1   
 10   5   9  1   
 11   6  10  2   
 12   6  11  am  
 13   7   8  2   
 14   9  12  1   
 15   9  13  1   
 16   9  29  1   
 17  11  14  1   
 18  11  30  1   
 19  12  15  1   
 20  12  16  1   
 21  12  31  1   
 22  13  17  1   
 23  13  32  1   
 24  13  33  1   
 25  14  18  ar  
 26  14  19  ar  
 27  15  20  2   
 28  15  34  1   
 29  16  17  1   
 30  16  35  1   
 31  16  36  1   
 32  17  20  1   
 33  17  37  1   
 34  18  21  ar  
 35  18  38  1   
 36  19  22  ar  
 37  19  39  1   
 38  20  40  1   
 39  21  23  1   
 40  21  24  ar  
 41  22  24  ar  
 42  22  41  1   
 43  23  25  ar  
 44  23  26  ar  
 45  24  42  1   
@<TRIPOS>SUBSTRUCTURE
  1 ****   9 GROUP 4 **** **** 0

# MOE 2024.06 (io_trps.svl 2023.06)
