@<TRIPOS>MOLECULE
Cyclohexanecarboxylic acid (5,6-dimethyl-7-oxo-4,7-dihydro-[1,2,4]triazolo[1,5-a
40 42 1 0 0 
SMALL
USER_CHARGES


@<TRIPOS>ATOM
  1 O        0.0340    -0.4770    -1.1000 O.2   1 <1>  -0.5700 
  2 C       -0.1080    -1.5910    -0.6100 C.2   1 <1>   0.5650 
  3 N       -1.3910    -2.1080    -0.3170 N.pl3 1 <1>   0.5610 
  4 C        1.0280    -2.4240    -0.3000 C.2   1 <1>  -0.1240 
  5 N       -2.6450    -1.6200    -0.4780 N.2   1 <1>  -0.7070 
  6 C       -1.5210    -3.3260     0.2580 C.2   1 <1>   0.2700 
  7 C        0.8570    -3.6450     0.2930 C.2   1 <1>  -0.0380 
  8 C        2.4030    -1.8600    -0.6740 C.3   1 <1>  -0.1020 
  9 C       -3.3780    -2.5700    -0.0140 C.2   1 <1>   0.5790 
 10 N       -2.7440    -3.6460     0.4690 N.2   1 <1>  -0.5650 
 11 N       -0.4140    -4.0940     0.5640 N.pl3 1 <1>  -0.5840 
 12 C        1.9530    -4.6130     0.7120 C.3   1 <1>  -0.1020 
 13 N       -4.7530    -2.5640     0.0630 N.am  1 <1>  -0.4930 
 14 C       -5.6770    -1.8460    -0.6300 C.2   1 <1>   0.5690 
 15 O       -5.4070    -1.1030    -1.5420 O.2   1 <1>  -0.5700 
 16 C       -7.1450    -2.0290    -0.2370 C.3   1 <1>  -0.0190 
 17 C       -7.9440    -2.7120    -1.3640 C.3   1 <1>  -0.1600 
 18 C       -7.7970    -0.6880     0.1520 C.3   1 <1>  -0.1600 
 19 C       -9.4200    -2.8930    -0.9800 C.3   1 <1>  -0.1600 
 20 C       -9.2720    -0.8680     0.5380 C.3   1 <1>  -0.1600 
 21 C      -10.0570    -1.5540    -0.5880 C.3   1 <1>  -0.1600 
 22 H        2.6890    -1.1000     0.0320 H     1 <1>   0.0800 
 23 H        2.3640    -1.4110    -1.6520 H     1 <1>   0.0800 
 24 H        3.1660    -2.6120    -0.7060 H     1 <1>   0.0800 
 25 H       -0.5920    -5.0080     0.9970 H     1 <1>   0.4000 
 26 H        1.7260    -5.0280     1.6780 H     1 <1>   0.0800 
 27 H        2.9110    -4.1360     0.7910 H     1 <1>   0.0800 
 28 H        2.0220    -5.4160     0.0000 H     1 <1>   0.0800 
 29 H       -5.0940    -3.2690     0.7040 H     1 <1>   0.3700 
 30 H       -7.1850    -2.6690     0.6260 H     1 <1>   0.0800 
 31 H       -7.5100    -3.6710    -1.5880 H     1 <1>   0.0800 
 32 H       -7.8820    -2.1090    -2.2550 H     1 <1>   0.0800 
 33 H       -7.7290    -0.0070    -0.6810 H     1 <1>   0.0800 
 34 H       -7.2590    -0.2490     0.9740 H     1 <1>   0.0800 
 35 H       -9.4950    -3.5790    -0.1540 H     1 <1>   0.0800 
 36 H       -9.9580    -3.3170    -1.8100 H     1 <1>   0.0800 
 37 H       -9.7080     0.0940     0.7450 H     1 <1>   0.0800 
 38 H       -9.3390    -1.4610     1.4330 H     1 <1>   0.0800 
 39 H      -11.0730    -1.7170    -0.2710 H     1 <1>   0.0800 
 40 H      -10.0810    -0.9070    -1.4480 H     1 <1>   0.0800 
@<TRIPOS>BOND
  1   1   2  2   
  2   2   3  1   
  3   2   4  1   
  4   3   5  1   
  5   3   6  1   
  6   4   7  2   
  7   4   8  1   
  8   5   9  2   
  9   6  10  2   
 10   6  11  1   
 11   7  11  1   
 12   7  12  1   
 13   8  22  1   
 14   8  23  1   
 15   8  24  1   
 16   9  10  1   
 17   9  13  1   
 18  11  25  1   
 19  12  26  1   
 20  12  27  1   
 21  12  28  1   
 22  13  14  am  
 23  13  29  1   
 24  14  15  2   
 25  14  16  1   
 26  16  17  1   
 27  16  18  1   
 28  16  30  1   
 29  17  19  1   
 30  17  31  1   
 31  17  32  1   
 32  18  20  1   
 33  18  33  1   
 34  18  34  1   
 35  19  21  1   
 36  19  35  1   
 37  19  36  1   
 38  20  21  1   
 39  20  37  1   
 40  20  38  1   
 41  21  39  1   
 42  21  40  1   
@<TRIPOS>SUBSTRUCTURE
  1 ****   9 GROUP 4 **** **** 0

# MOE 2024.06 (io_trps.svl 2023.06)
