@<TRIPOS>MOLECULE
1-Cyclohexyl-3-[3-(4-methoxy-phenyl)-[1,2,4]oxadiazol-5-ylmethyl]-urea
46 48 1 0 0 
SMALL
USER_CHARGES


@<TRIPOS>ATOM
  1 O        0.1150     0.8870     1.7670 O.2   1 <1>  -0.5700 
  2 C        0.4920     1.1250     0.6380 C.2   1 <1>   0.6900 
  3 N       -0.3720     1.4640    -0.3420 N.am  1 <1>  -0.7300 
  4 N        1.7990     1.0550     0.3250 N.am  1 <1>  -0.7300 
  5 C       -1.8280     1.5920    -0.1790 C.3   1 <1>   0.2200 
  6 C        2.8720     0.7810     1.3140 C.3   1 <1>   0.3200 
  7 C       -2.5200     0.6050    -1.1250 C.3   1 <1>  -0.1600 
  8 C       -2.2360     3.0370    -0.4850 C.3   1 <1>  -0.1600 
  9 C        4.0540     1.7140     1.1110 C.2   1 <1>   0.2980 
 10 C       -4.0460     0.7690    -1.0770 C.3   1 <1>  -0.1600 
 11 C       -3.7620     3.2040    -0.4360 C.3   1 <1>  -0.1600 
 12 O        3.9340     2.9630     1.4770 O.3   1 <1>  -0.0190 
 13 N        5.1750     1.4010     0.6010 N.2   1 <1>  -0.5650 
 14 C       -4.4600     2.2150    -1.3810 C.3   1 <1>  -0.1600 
 15 N        5.0780     3.4920     1.1750 N.2   1 <1>  -0.4100 
 16 C        5.8160     2.5740     0.6570 C.2   1 <1>   0.4620 
 17 C        7.1770     2.7490     0.1780 C.ar  1 <1>   0.0540 
 18 C        7.8120     3.9930     0.2390 C.ar  1 <1>  -0.1500 
 19 C        7.9090     1.6900    -0.3640 C.ar  1 <1>  -0.1500 
 20 C        9.1050     4.1750    -0.2150 C.ar  1 <1>  -0.1500 
 21 C        9.2020     1.8630    -0.8210 C.ar  1 <1>  -0.1500 
 22 C        9.8120     3.1030    -0.7520 C.ar  1 <1>   0.0820 
 23 O       11.0800     3.1910    -1.2200 O.3   1 <1>  -0.3620 
 24 C       11.7910     4.4090    -1.1950 C.3   1 <1>   0.0400 
 25 H       -0.0170     1.6700    -1.2700 H     1 <1>   0.3700 
 26 H        2.1050     1.2700    -0.6200 H     1 <1>   0.3700 
 27 H       -2.1050     1.3570     0.8370 H     1 <1>   0.0800 
 28 H        3.2020    -0.2360     1.1950 H     1 <1>   0.0800 
 29 H        2.4990     0.8980     2.3170 H     1 <1>   0.0800 
 30 H       -2.2610    -0.3990    -0.8390 H     1 <1>   0.0800 
 31 H       -2.1820     0.7730    -2.1320 H     1 <1>   0.0800 
 32 H       -1.8860     3.3120    -1.4640 H     1 <1>   0.0800 
 33 H       -1.7840     3.6930     0.2380 H     1 <1>   0.0800 
 34 H       -4.4030     0.4940    -0.0990 H     1 <1>   0.0800 
 35 H       -4.5030     0.1050    -1.7910 H     1 <1>   0.0800 
 36 H       -4.0240     4.2120    -0.7110 H     1 <1>   0.0800 
 37 H       -4.1060     3.0380     0.5700 H     1 <1>   0.0800 
 38 H       -5.5270     2.3130    -1.2790 H     1 <1>   0.0800 
 39 H       -4.2030     2.4530    -2.3990 H     1 <1>   0.0800 
 40 H        7.2800     4.8330     0.6510 H     1 <1>   0.1500 
 41 H        7.4590     0.7150    -0.4300 H     1 <1>   0.1500 
 42 H        9.5450     5.1510    -0.1450 H     1 <1>   0.1500 
 43 H        9.7490     1.0360    -1.2350 H     1 <1>   0.1500 
 44 H       12.7650     4.2350    -1.6150 H     1 <1>   0.0800 
 45 H       11.8850     4.7370    -0.1750 H     1 <1>   0.0800 
 46 H       11.2610     5.1340    -1.7880 H     1 <1>   0.0800 
@<TRIPOS>BOND
  1   1   2  2   
  2   2   3  am  
  3   2   4  am  
  4   3   5  1   
  5   3  25  1   
  6   4   6  1   
  7   4  26  1   
  8   5   7  1   
  9   5   8  1   
 10   5  27  1   
 11   6   9  1   
 12   6  28  1   
 13   6  29  1   
 14   7  10  1   
 15   7  30  1   
 16   7  31  1   
 17   8  11  1   
 18   8  32  1   
 19   8  33  1   
 20   9  12  1   
 21   9  13  2   
 22  10  14  1   
 23  10  34  1   
 24  10  35  1   
 25  11  14  1   
 26  11  36  1   
 27  11  37  1   
 28  12  15  1   
 29  13  16  1   
 30  14  38  1   
 31  14  39  1   
 32  15  16  2   
 33  16  17  1   
 34  17  18  ar  
 35  17  19  ar  
 36  18  20  ar  
 37  18  40  1   
 38  19  21  ar  
 39  19  41  1   
 40  20  22  ar  
 41  20  42  1   
 42  21  22  ar  
 43  21  43  1   
 44  22  23  1   
 45  23  24  1   
 46  24  44  1   
 47  24  45  1   
 48  24  46  1   
@<TRIPOS>SUBSTRUCTURE
  1 ****   9 GROUP 4 **** **** 0

# MOE 2024.06 (io_trps.svl 2023.06)
