@<TRIPOS>MOLECULE
8-Ethylamino-3,7-dimethyl-1-(4-methyl-benzyl)-3,7-dihydro-purine-2,6-dione
46 48 1 0 0 
SMALL
USER_CHARGES


@<TRIPOS>ATOM
  1 O        0.9420     1.5380     3.2110 O.2   1 <1>  -0.5750 
  2 C        1.6380     1.7180     2.2320 C.2   1 <1>   0.6860 
  3 N        1.3550     2.7540     1.3540 N.am  1 <1>  -0.4260 
  4 N        2.7210     0.8810     1.9920 N.am  1 <1>  -0.4420 
  5 C        2.1880     3.0440     0.2880 C.2   1 <1>   0.6990 
  6 C       -0.0170     3.3220     1.3400 C.3   1 <1>   0.2760 
  7 C        3.4700     1.1030     0.8520 C.2   1 <1>   0.4200 
  8 C        3.0240    -0.2550     2.9110 C.3   1 <1>   0.0510 
  9 O        2.0220     4.0500    -0.3840 O.2   1 <1>  -0.5750 
 10 C        3.2550     2.1330     0.0070 C.2   1 <1>   0.2700 
 11 C       -0.8370     2.5120     0.3490 C.ar  1 <1>  -0.1520 
 12 N        4.5140     0.3680     0.3790 N.pl3 1 <1>  -0.7040 
 13 N        4.2170     2.0190    -1.0180 N.pl3 1 <1>  -0.7680 
 14 C       -0.9960     2.9500    -0.9570 C.ar  1 <1>  -0.1580 
 15 C       -1.4130     1.3120     0.7360 C.ar  1 <1>  -0.1580 
 16 C        4.9420     0.9340    -0.7440 C.cat 1 <1>   1.0690 
 17 C        4.2820     2.9820    -2.1530 C.3   1 <1>   0.2670 
 18 C       -1.7140     2.1920    -1.8650 C.ar  1 <1>  -0.1580 
 19 C       -2.1290     0.5550    -0.1730 C.ar  1 <1>  -0.1580 
 20 N        5.9480     0.4840    -1.4890 N.pl3 1 <1>  -0.7180 
 21 C       -2.2830     0.9900    -1.4790 C.ar  1 <1>  -0.1520 
 22 C        6.8060    -0.6990    -1.2690 C.3   1 <1>   0.1600 
 23 C       -3.0680     0.1610    -2.4790 C.3   1 <1>  -0.1050 
 24 C        8.2400    -0.2230    -1.0810 C.3   1 <1>  -0.2470 
 25 H        0.0120     4.3570     1.0450 H     1 <1>   0.0710 
 26 H       -0.4640     3.2740     2.3180 H     1 <1>   0.0710 
 27 H        2.6530    -0.0490     3.9010 H     1 <1>   0.0710 
 28 H        4.0860    -0.4110     2.9800 H     1 <1>   0.0710 
 29 H        2.5510    -1.1510     2.5470 H     1 <1>   0.0710 
 30 H        4.9030    -0.4720     0.7920 H     1 <1>   0.4440 
 31 H       -0.5610     3.8820    -1.2770 H     1 <1>   0.1420 
 32 H       -1.3070     0.9580     1.7480 H     1 <1>   0.1420 
 33 H        4.4700     3.9750    -1.7800 H     1 <1>   0.0710 
 34 H        3.3420     2.9890    -2.6810 H     1 <1>   0.0710 
 35 H        5.0640     2.7170    -2.8430 H     1 <1>   0.0710 
 36 H       -1.8300     2.5430    -2.8760 H     1 <1>   0.1420 
 37 H       -2.5690    -0.3750     0.1410 H     1 <1>   0.1420 
 38 H        6.1970     1.0230    -2.3170 H     1 <1>   0.4440 
 39 H        6.7460    -1.3510    -2.1250 H     1 <1>   0.0710 
 40 H        6.4890    -1.2510    -0.4000 H     1 <1>   0.0710 
 41 H       -2.3970    -0.4630    -3.0410 H     1 <1>   0.0710 
 42 H       -3.6000     0.8020    -3.1590 H     1 <1>   0.0710 
 43 H       -3.7820    -0.4630    -1.9730 H     1 <1>   0.0710 
 44 H        8.5910     0.2930    -1.9580 H     1 <1>   0.0710 
 45 H        8.8820    -1.0720    -0.9190 H     1 <1>   0.0710 
 46 H        8.3220     0.4240    -0.2260 H     1 <1>   0.0710 
@<TRIPOS>BOND
  1   1   2  2   
  2   2   3  am  
  3   2   4  am  
  4   3   5  am  
  5   3   6  1   
  6   4   7  1   
  7   4   8  1   
  8   5   9  2   
  9   5  10  1   
 10   6  11  1   
 11   6  25  1   
 12   6  26  1   
 13   7  10  2   
 14   7  12  1   
 15   8  27  1   
 16   8  28  1   
 17   8  29  1   
 18  10  13  1   
 19  11  14  ar  
 20  11  15  ar  
 21  12  16  ar  
 22  12  30  1   
 23  13  16  ar  
 24  13  17  1   
 25  14  18  ar  
 26  14  31  1   
 27  15  19  ar  
 28  15  32  1   
 29  16  20  ar  
 30  17  33  1   
 31  17  34  1   
 32  17  35  1   
 33  18  21  ar  
 34  18  36  1   
 35  19  21  ar  
 36  19  37  1   
 37  20  22  1   
 38  20  38  1   
 39  21  23  1   
 40  22  24  1   
 41  22  39  1   
 42  22  40  1   
 43  23  41  1   
 44  23  42  1   
 45  23  43  1   
 46  24  44  1   
 47  24  45  1   
 48  24  46  1   
@<TRIPOS>SUBSTRUCTURE
  1 ****  10 GROUP 4 **** **** 0

# MOE 2024.06 (io_trps.svl 2023.06)
