@<TRIPOS>MOLECULE
5-(4-Ethoxy-phenyl)-2-methylsulfanyl-5,8-dihydro-3H,6H-pyrido[2,3-d]pyrimidine-4
40 42 1 0 0 
SMALL
USER_CHARGES


@<TRIPOS>ATOM
  1 S        0.3160     0.2390     1.4460 S.3   1 <1>  -0.3710 
  2 C        1.6960     1.0660     0.7010 C.2   1 <1>   0.6410 
  3 C       -1.1430     0.8130     0.4640 C.3   1 <1>  -0.0100 
  4 N        2.8860     0.7830     1.2850 N.pl3 1 <1>  -0.5500 
  5 N        1.5140     1.8420    -0.2980 N.2   1 <1>  -0.6610 
  6 C        4.0190     1.3650     0.8180 C.2   1 <1>   0.2090 
  7 C        2.6330     2.4410    -0.8040 C.2   1 <1>   0.7670 
  8 N        5.2250     1.0680     1.4010 N.am  1 <1>  -0.5390 
  9 C        3.9070     2.2260    -0.2250 C.2   1 <1>  -0.1240 
 10 O        2.4920     3.1470    -1.7960 O.2   1 <1>  -0.5700 
 11 C        6.4180     1.4780     0.8990 C.2   1 <1>   0.5690 
 12 C        5.1350     2.9680    -0.7400 C.3   1 <1>   0.2020 
 13 O        7.4410     1.2590     1.4890 O.2   1 <1>  -0.5700 
 14 C        6.4410     2.2020    -0.4360 C.3   1 <1>  -0.0990 
 15 C        5.1360     4.3880    -0.1660 C.ar  1 <1>  -0.1430 
 16 C        5.5960     4.6800     1.1130 C.ar  1 <1>  -0.1500 
 17 C        4.6390     5.4250    -0.9450 C.ar  1 <1>  -0.1500 
 18 C        5.5670     5.9770     1.5910 C.ar  1 <1>  -0.1500 
 19 C        4.6070     6.7230    -0.4680 C.ar  1 <1>  -0.1500 
 20 C        5.0740     7.0090     0.8110 C.ar  1 <1>   0.0820 
 21 O        5.0810     8.2480     1.3660 O.3   1 <1>  -0.3620 
 22 C        4.5060     9.3740     0.7380 C.3   1 <1>   0.1200 
 23 C        2.9880     9.3400     0.9200 C.3   1 <1>  -0.2400 
 24 H       -2.0220     0.3470     0.8720 H     1 <1>   0.0800 
 25 H       -0.9900     0.5200    -0.5590 H     1 <1>   0.0800 
 26 H       -1.1990     1.8840     0.5490 H     1 <1>   0.0800 
 27 H        2.8750     0.1340     2.0700 H     1 <1>   0.4000 
 28 H        5.2840     0.5420     2.2720 H     1 <1>   0.3700 
 29 H        5.0680     3.0430    -1.8120 H     1 <1>   0.0800 
 30 H        6.5910     1.4580    -1.1950 H     1 <1>   0.0800 
 31 H        7.2790     2.8740    -0.4680 H     1 <1>   0.0800 
 32 H        5.9810     3.9140     1.7590 H     1 <1>   0.1500 
 33 H        4.2600     5.2270    -1.9340 H     1 <1>   0.1500 
 34 H        5.9260     6.2000     2.5800 H     1 <1>   0.1500 
 35 H        4.2120     7.4910    -1.1030 H     1 <1>   0.1500 
 36 H        4.7970     9.3940    -0.2970 H     1 <1>   0.0800 
 37 H        4.9120    10.2450     1.2210 H     1 <1>   0.0800 
 38 H        2.5640     8.4710     0.4520 H     1 <1>   0.0800 
 39 H        2.5500    10.2140     0.4740 H     1 <1>   0.0800 
 40 H        2.7450     9.3330     1.9680 H     1 <1>   0.0800 
@<TRIPOS>BOND
  1   1   2  1   
  2   1   3  1   
  3   2   4  1   
  4   2   5  2   
  5   3  24  1   
  6   3  25  1   
  7   3  26  1   
  8   4   6  1   
  9   4  27  1   
 10   5   7  1   
 11   6   8  1   
 12   6   9  2   
 13   7   9  1   
 14   7  10  2   
 15   8  11  am  
 16   8  28  1   
 17   9  12  1   
 18  11  13  2   
 19  11  14  1   
 20  12  14  1   
 21  12  15  1   
 22  12  29  1   
 23  14  30  1   
 24  14  31  1   
 25  15  16  ar  
 26  15  17  ar  
 27  16  18  ar  
 28  16  32  1   
 29  17  19  ar  
 30  17  33  1   
 31  18  20  ar  
 32  18  34  1   
 33  19  20  ar  
 34  19  35  1   
 35  20  21  1   
 36  21  22  1   
 37  22  23  1   
 38  22  36  1   
 39  22  37  1   
 40  23  38  1   
 41  23  39  1   
 42  23  40  1   
@<TRIPOS>SUBSTRUCTURE
  1 ****  15 GROUP 4 **** **** 0

# MOE 2024.06 (io_trps.svl 2023.06)
