@<TRIPOS>MOLECULE
4-[2-(1-Bicyclo[2.2.1]hept-5-en-2-yl-1H-tetrazol-5-ylsulfanyl)-acetylamino]-benz
42 45 1 0 0 
SMALL
USER_CHARGES


@<TRIPOS>ATOM
  1 S        0.9150    -0.0930    -0.3660 S.3   1 <1>  -0.2860 
  2 C       -0.2710    -1.4220    -0.1140 C.2   1 <1>   0.2420 
  3 C       -0.1030     1.4360    -0.0600 C.3   1 <1>   0.1310 
  4 N       -1.4790    -1.2180     0.2350 N.2   1 <1>  -0.3380 
  5 N       -0.0180    -2.7080    -0.2920 N.pl3 1 <1>   0.3140 
  6 C        0.7470     2.6940    -0.1390 C.2   1 <1>   0.5690 
  7 N       -2.0250    -2.4300     0.2630 N.2   1 <1>   0.0000 
  8 N       -1.1660    -3.3310    -0.0690 N.2   1 <1>  -0.4180 
  9 C        1.2250    -3.3640    -0.7950 C.3   1 <1>   0.1760 
 10 O        0.2020     3.7140    -0.4830 O.2   1 <1>  -0.5700 
 11 N        2.0740     2.6030     0.1900 N.am  1 <1>  -0.5470 
 12 C        1.2200    -4.9060    -0.6690 C.3   1 <1>   0.0580 
 13 C        2.5240    -2.9660    -0.0290 C.3   1 <1>  -0.1600 
 14 C        3.1060     3.5490     0.2600 C.ar  1 <1>   0.1170 
 15 C        1.0960    -5.2600     0.8030 C.2   1 <1>  -0.2880 
 16 C        2.7130    -5.1810    -0.8340 C.3   1 <1>  -0.1600 
 17 C        3.1450    -4.3230     0.3520 C.3   1 <1>   0.0580 
 18 C        4.4000     3.0940     0.4830 C.ar  1 <1>  -0.1500 
 19 C        2.9150     4.9210     0.1280 C.ar  1 <1>  -0.1500 
 20 C        2.2300    -4.9120     1.4020 C.2   1 <1>  -0.2880 
 21 C        5.4620     3.9730     0.5700 C.ar  1 <1>  -0.1500 
 22 C        3.9810     5.7970     0.2150 C.ar  1 <1>  -0.1500 
 23 C        5.2850     5.3520     0.4390 C.ar  1 <1>  -0.1790 
 24 C        6.4080     6.2760     0.5320 C.2   1 <1>   0.9790 
 25 O        6.2350     7.5040     0.4170 O.co2 1 <1>  -0.9000 
 26 O        7.5620     5.8550     0.7320 O.co2 1 <1>  -0.9000 
 27 H       -0.5410     1.3430     0.9160 H     1 <1>   0.0800 
 28 H       -0.8770     1.4580    -0.8050 H     1 <1>   0.0800 
 29 H        1.3310    -3.1030    -1.8320 H     1 <1>   0.0800 
 30 H        2.3810     1.6510     0.3850 H     1 <1>   0.3700 
 31 H        0.5850    -5.4490    -1.3470 H     1 <1>   0.0800 
 32 H        2.3240    -2.3890     0.8580 H     1 <1>   0.0800 
 33 H        3.1880    -2.4220    -0.6770 H     1 <1>   0.0800 
 34 H        0.1880    -5.6920     1.1920 H     1 <1>   0.1500 
 35 H        3.1130    -4.8410    -1.7740 H     1 <1>   0.0800 
 36 H        2.9520    -6.2220    -0.6860 H     1 <1>   0.0800 
 37 H        4.1970    -4.3400     0.5830 H     1 <1>   0.0800 
 38 H        4.5890     2.0440     0.5900 H     1 <1>   0.1500 
 39 H        1.9350     5.3210    -0.0430 H     1 <1>   0.1500 
 40 H        2.5350    -4.9760     2.4340 H     1 <1>   0.1500 
 41 H        6.4600     3.6050     0.7420 H     1 <1>   0.1500 
 42 H        3.8160     6.8570     0.1100 H     1 <1>   0.1500 
@<TRIPOS>BOND
  1   1   2  1   
  2   1   3  1   
  3   2   4  2   
  4   2   5  1   
  5   3   6  1   
  6   3  27  1   
  7   3  28  1   
  8   4   7  1   
  9   5   8  1   
 10   5   9  1   
 11   6  10  2   
 12   6  11  am  
 13   7   8  2   
 14   9  12  1   
 15   9  13  1   
 16   9  29  1   
 17  11  14  1   
 18  11  30  1   
 19  12  15  1   
 20  12  16  1   
 21  12  31  1   
 22  13  17  1   
 23  13  32  1   
 24  13  33  1   
 25  14  18  ar  
 26  14  19  ar  
 27  15  20  2   
 28  15  34  1   
 29  16  17  1   
 30  16  35  1   
 31  16  36  1   
 32  17  20  1   
 33  17  37  1   
 34  18  21  ar  
 35  18  38  1   
 36  19  22  ar  
 37  19  39  1   
 38  20  40  1   
 39  21  23  ar  
 40  21  41  1   
 41  22  23  ar  
 42  22  42  1   
 43  23  24  1   
 44  24  25  ar  
 45  24  26  ar  
@<TRIPOS>SUBSTRUCTURE
  1 ****   1 GROUP 4 **** **** 0

# MOE 2024.06 (io_trps.svl 2023.06)
