@<TRIPOS>MOLECULE
4-Pyrimidin-2-yl-piperazine-1-carboxylic acid adamantan-1-ylamide
52 56 1 0 0 
SMALL
USER_CHARGES


@<TRIPOS>ATOM
  1 O       -0.2990     0.7790    -0.2560 O.2   1 <1>  -0.5700 
  2 C       -0.3130     1.9190     0.1700 C.2   1 <1>   0.6900 
  3 N       -1.4990     2.5700     0.3650 N.am  1 <1>  -0.6600 
  4 N        0.8330     2.5720     0.4770 N.am  1 <1>  -0.7300 
  5 C       -1.6640     4.0370     0.1040 C.3   1 <1>   0.1400 
  6 C       -2.7940     1.8170     0.3450 C.3   1 <1>   0.1400 
  7 C        2.2220     2.0980     0.3740 C.3   1 <1>   0.3000 
  8 C       -2.4520     4.2800    -1.1950 C.3   1 <1>   0.2090 
  9 C       -3.5760     2.0810    -0.9530 C.3   1 <1>   0.2090 
 10 C        3.1370     3.2510     0.8310 C.3   1 <1>  -0.1600 
 11 C        2.5760     1.7340    -1.0810 C.3   1 <1>  -0.1600 
 12 C        2.4600     0.8840     1.2920 C.3   1 <1>  -0.1600 
 13 N       -3.7580     3.5540    -1.1570 N.pl3 1 <1>  -0.8380 
 14 C        4.6160     2.8280     0.7510 C.3   1 <1>  -0.0800 
 15 C        4.0510     1.2930    -1.1710 C.3   1 <1>  -0.0800 
 16 C        3.9340     0.4410     1.2080 C.3   1 <1>  -0.0800 
 17 C       -4.9480     4.1860    -0.8610 C.ar  1 <1>   0.7200 
 18 C        4.9550     2.4490    -0.7030 C.3   1 <1>  -0.1600 
 19 C        4.8390     1.6030     1.6590 C.3   1 <1>  -0.1600 
 20 C        4.2700     0.0750    -0.2510 C.3   1 <1>  -0.1600 
 21 N       -6.0570     3.4500    -0.9240 N.ar  1 <1>  -0.6200 
 22 N       -4.8880     5.4760    -0.5300 N.ar  1 <1>  -0.6200 
 23 C       -7.1810     4.0620    -0.6480 C.ar  1 <1>   0.1600 
 24 C       -6.0280     6.0620    -0.2570 C.ar  1 <1>   0.1600 
 25 C       -7.2240     5.3900    -0.3040 C.ar  1 <1>  -0.1500 
 26 H        0.7190     3.3810     1.0760 H     1 <1>   0.3700 
 27 H       -0.7080     4.5220     0.0230 H     1 <1>   0.0800 
 28 H       -2.1980     4.4850     0.9240 H     1 <1>   0.0800 
 29 H       -3.3940     2.1270     1.1820 H     1 <1>   0.0800 
 30 H       -2.6160     0.7600     0.4450 H     1 <1>   0.0800 
 31 H       -1.8750     3.9180    -2.0280 H     1 <1>   0.0800 
 32 H       -2.5960     5.3360    -1.3420 H     1 <1>   0.0800 
 33 H       -4.5200     1.5680    -0.9080 H     1 <1>   0.0800 
 34 H       -3.0260     1.6730    -1.7830 H     1 <1>   0.0800 
 35 H        2.9020     3.5240     1.8440 H     1 <1>   0.0800 
 36 H        2.9800     4.1100     0.2020 H     1 <1>   0.0800 
 37 H        1.9510     0.9280    -1.4220 H     1 <1>   0.0800 
 38 H        2.4080     2.5810    -1.7210 H     1 <1>   0.0800 
 39 H        1.8310     0.0660     0.9880 H     1 <1>   0.0800 
 40 H        2.2130     1.1370     2.3070 H     1 <1>   0.0800 
 41 H        5.2480     3.6390     1.0730 H     1 <1>   0.0800 
 42 H        4.2890     1.0300    -2.1870 H     1 <1>   0.0800 
 43 H        4.0930    -0.4140     1.8430 H     1 <1>   0.0800 
 44 H        5.9870     2.1540    -0.7720 H     1 <1>   0.0800 
 45 H        4.8160     3.3020    -1.3450 H     1 <1>   0.0800 
 46 H        5.8700     1.2990     1.6120 H     1 <1>   0.0800 
 47 H        4.6210     1.8600     2.6810 H     1 <1>   0.0800 
 48 H        5.2920    -0.2520    -0.3190 H     1 <1>   0.0800 
 49 H        3.6440    -0.7390    -0.5740 H     1 <1>   0.0800 
 50 H       -8.0920     3.4900    -0.6980 H     1 <1>   0.1500 
 51 H       -6.0070     7.1050     0.0090 H     1 <1>   0.1500 
 52 H       -8.1520     5.8820    -0.0800 H     1 <1>   0.1500 
@<TRIPOS>BOND
  1   1   2  2   
  2   2   3  am  
  3   2   4  am  
  4   3   5  1   
  5   3   6  1   
  6   4   7  1   
  7   4  26  1   
  8   5   8  1   
  9   5  27  1   
 10   5  28  1   
 11   6   9  1   
 12   6  29  1   
 13   6  30  1   
 14   7  10  1   
 15   7  11  1   
 16   7  12  1   
 17   8  13  1   
 18   8  31  1   
 19   8  32  1   
 20   9  13  1   
 21   9  33  1   
 22   9  34  1   
 23  10  14  1   
 24  10  35  1   
 25  10  36  1   
 26  11  15  1   
 27  11  37  1   
 28  11  38  1   
 29  12  16  1   
 30  12  39  1   
 31  12  40  1   
 32  13  17  1   
 33  14  18  1   
 34  14  19  1   
 35  14  41  1   
 36  15  18  1   
 37  15  20  1   
 38  15  42  1   
 39  16  19  1   
 40  16  20  1   
 41  16  43  1   
 42  17  21  ar  
 43  17  22  ar  
 44  18  44  1   
 45  18  45  1   
 46  19  46  1   
 47  19  47  1   
 48  20  48  1   
 49  20  49  1   
 50  21  23  ar  
 51  22  24  ar  
 52  23  25  ar  
 53  23  50  1   
 54  24  25  ar  
 55  24  51  1   
 56  25  52  1   
@<TRIPOS>SUBSTRUCTURE
  1 ****   2 GROUP 4 **** **** 0

# MOE 2024.06 (io_trps.svl 2023.06)
