@<TRIPOS>MOLECULE
2-(3-Cyano-4-methoxymethyl-6-methyl-pyridin-2-ylsulfanyl)-N-(tetrahydro-furan-2-
44 45 1 0 0 
SMALL
USER_CHARGES


@<TRIPOS>ATOM
  1 S        0.5040     0.4840     0.1710 S.3   1 <1>  -0.3320 
  2 C       -1.1220     1.2200    -0.0220 C.ar  1 <1>   0.4120 
  3 C        0.1880    -1.3520     0.1700 C.3   1 <1>   0.1310 
  4 N       -2.1110     0.3450    -0.1070 N.ar  1 <1>  -0.6200 
  5 C       -1.2380     2.6070    -0.0720 C.ar  1 <1>   0.0730 
  6 C        1.4850    -2.1310     0.3280 C.2   1 <1>   0.5690 
  7 C       -3.3140     0.8690    -0.2460 C.ar  1 <1>   0.1660 
  8 C       -0.0780     3.4430     0.0240 C.1   1 <1>   0.4840 
  9 C       -2.5150     3.1310    -0.2240 C.ar  1 <1>  -0.1440 
 10 O        1.5380    -3.2600    -0.0940 O.2   1 <1>  -0.5700 
 11 N        2.5490    -1.5420     0.9340 N.am  1 <1>  -0.7300 
 12 C       -3.5610     2.2310    -0.3070 C.ar  1 <1>  -0.1500 
 13 C       -4.4580    -0.1190    -0.3350 C.3   1 <1>  -0.0960 
 14 N        0.8340     4.1290     0.0590 N.1   1 <1>  -0.5570 
 15 C       -2.7720     4.6300    -0.2790 C.3   1 <1>   0.2630 
 16 C        3.8970    -2.1500     1.1000 C.3   1 <1>   0.1400 
 17 O       -2.6190     5.1210     1.0110 O.3   1 <1>  -0.5600 
 18 C        4.8530    -1.6880    -0.0080 C.3   1 <1>   0.2000 
 19 C       -2.6330     6.5090     1.1010 C.3   1 <1>   0.0400 
 20 O        6.1450    -2.1010     0.2920 O.3   1 <1>  -0.5600 
 21 C        4.9800    -0.1760    -0.1610 C.3   1 <1>  -0.1600 
 22 C        7.0690    -1.3380    -0.4150 C.3   1 <1>   0.1200 
 23 C        6.3830    -0.0080    -0.7210 C.3   1 <1>  -0.1600 
 24 H       -0.2820    -1.5960    -0.7650 H     1 <1>   0.0800 
 25 H       -0.4790    -1.5670     0.9830 H     1 <1>   0.0800 
 26 H        2.4690    -0.5540     1.1920 H     1 <1>   0.3700 
 27 H       -4.5700     2.5870    -0.4140 H     1 <1>   0.1500 
 28 H       -4.4870    -0.7160     0.5580 H     1 <1>   0.0800 
 29 H       -4.3090    -0.7670    -1.1790 H     1 <1>   0.0800 
 30 H       -5.4000     0.3850    -0.4460 H     1 <1>   0.0800 
 31 H       -3.7740     4.8440    -0.6090 H     1 <1>   0.0800 
 32 H       -2.0650     5.1170    -0.9300 H     1 <1>   0.0800 
 33 H        3.8150    -3.2230     1.0650 H     1 <1>   0.0800 
 34 H        4.2930    -1.8670     2.0580 H     1 <1>   0.0800 
 35 H        4.5780    -2.1420    -0.9450 H     1 <1>   0.0800 
 36 H       -2.5310     6.7770     2.1380 H     1 <1>   0.0800 
 37 H       -3.5670     6.8840     0.7190 H     1 <1>   0.0800 
 38 H       -1.8030     6.9100     0.5430 H     1 <1>   0.0800 
 39 H        4.9080     0.2950     0.8030 H     1 <1>   0.0800 
 40 H        4.2220     0.2230    -0.8120 H     1 <1>   0.0800 
 41 H        7.3210    -1.8660    -1.3180 H     1 <1>   0.0800 
 42 H        7.9460    -1.2120     0.1970 H     1 <1>   0.0800 
 43 H        6.9000     0.8140    -0.2570 H     1 <1>   0.0800 
 44 H        6.3590     0.1490    -1.7850 H     1 <1>   0.0800 
@<TRIPOS>BOND
  1   1   2  1   
  2   1   3  1   
  3   2   4  ar  
  4   2   5  ar  
  5   3   6  1   
  6   3  24  1   
  7   3  25  1   
  8   4   7  ar  
  9   5   8  1   
 10   5   9  ar  
 11   6  10  2   
 12   6  11  am  
 13   7  12  ar  
 14   7  13  1   
 15   8  14  3   
 16   9  12  ar  
 17   9  15  1   
 18  11  16  1   
 19  11  26  1   
 20  12  27  1   
 21  13  28  1   
 22  13  29  1   
 23  13  30  1   
 24  15  17  1   
 25  15  31  1   
 26  15  32  1   
 27  16  18  1   
 28  16  33  1   
 29  16  34  1   
 30  17  19  1   
 31  18  20  1   
 32  18  21  1   
 33  18  35  1   
 34  19  36  1   
 35  19  37  1   
 36  19  38  1   
 37  20  22  1   
 38  21  23  1   
 39  21  39  1   
 40  21  40  1   
 41  22  23  1   
 42  22  41  1   
 43  22  42  1   
 44  23  43  1   
 45  23  44  1   
@<TRIPOS>SUBSTRUCTURE
  1 ****   1 GROUP 4 **** **** 0

# MOE 2024.06 (io_trps.svl 2023.06)
