@<TRIPOS>MOLECULE
1-[3-(3,4-Dimethoxy-phenyl)-[1,2,4]oxadiazol-5-ylmethyl]-1-isopropyl-3-m-tolyl-u
56 58 1 0 0 
SMALL
USER_CHARGES


@<TRIPOS>ATOM
  1 O        0.1050    -0.2950    -0.0190 O.2   1 <1>  -0.5700 
  2 C        0.2990     0.8870     0.1930 C.2   1 <1>   0.6900 
  3 N        1.5070     1.3060     0.6840 N.am  1 <1>  -0.6600 
  4 N       -0.6590     1.8210    -0.0790 N.am  1 <1>  -0.5470 
  5 C        1.6210     2.5370     1.5240 C.3   1 <1>   0.2200 
  6 C        2.6990     0.3980     0.5270 C.3   1 <1>   0.3200 
  7 C       -2.0000     1.6990    -0.4670 C.ar  1 <1>   0.1170 
  8 C        2.1540     3.7030     0.6910 C.3   1 <1>  -0.2400 
  9 C        2.4750     2.3120     2.7730 C.3   1 <1>  -0.2400 
 10 C        3.8540     1.0520    -0.2150 C.2   1 <1>   0.2980 
 11 C       -2.6030     2.7610    -1.1310 C.ar  1 <1>  -0.1500 
 12 C       -2.7630     0.5680    -0.1990 C.ar  1 <1>  -0.1500 
 13 O        3.6610     1.4510    -1.4440 O.3   1 <1>  -0.0190 
 14 N        5.0200     1.2590     0.2470 N.2   1 <1>  -0.5650 
 15 C       -3.9310     2.7040    -1.5230 C.ar  1 <1>  -0.1430 
 16 C       -4.0890     0.5010    -0.5860 C.ar  1 <1>  -0.1500 
 17 N        4.8000     1.9630    -1.7940 N.2   1 <1>  -0.4100 
 18 C        5.6070     1.8500    -0.7990 C.2   1 <1>   0.4620 
 19 C       -4.6720     1.5680    -1.2470 C.ar  1 <1>  -0.1500 
 20 C       -4.5790     3.8700    -2.2480 C.3   1 <1>  -0.0970 
 21 C        6.9890     2.3010    -0.7750 C.ar  1 <1>   0.0540 
 22 C        7.7980     2.1390     0.3500 C.ar  1 <1>  -0.1500 
 23 C        7.5690     2.9170    -1.8830 C.ar  1 <1>  -0.1500 
 24 C        9.1150     2.5610     0.3840 C.ar  1 <1>   0.0830 
 25 C        8.8800     3.3560    -1.8700 C.ar  1 <1>  -0.1500 
 26 O        9.7680     2.3160     1.5560 O.3   1 <1>  -0.3630 
 27 C        9.6730     3.1950    -0.7370 C.ar  1 <1>   0.0830 
 28 C       11.1380     1.9800     1.5660 C.3   1 <1>   0.0400 
 29 O       10.9570     3.6540    -0.6960 O.3   1 <1>  -0.3630 
 30 C       11.5060     4.4480    -1.7250 C.3   1 <1>   0.0400 
 31 H       -0.2840     2.7620    -0.1090 H     1 <1>   0.3700 
 32 H        0.6350     2.8010     1.8710 H     1 <1>   0.0800 
 33 H        2.4310    -0.4860    -0.0240 H     1 <1>   0.0800 
 34 H        3.0350     0.0720     1.4940 H     1 <1>   0.0800 
 35 H        3.1940     3.5700     0.4550 H     1 <1>   0.0800 
 36 H        2.0620     4.6170     1.2490 H     1 <1>   0.0800 
 37 H        1.5980     3.8060    -0.2230 H     1 <1>   0.0800 
 38 H        3.5090     2.1600     2.5230 H     1 <1>   0.0800 
 39 H        2.1060     1.4680     3.3280 H     1 <1>   0.0800 
 40 H        2.4160     3.1780     3.4080 H     1 <1>   0.0800 
 41 H       -2.0260     3.6410    -1.3440 H     1 <1>   0.1500 
 42 H       -2.3240    -0.2660     0.3170 H     1 <1>   0.1500 
 43 H       -4.6660    -0.3810    -0.3730 H     1 <1>   0.1500 
 44 H       -5.7050     1.5090    -1.5440 H     1 <1>   0.1500 
 45 H       -3.8370     4.5610    -2.6050 H     1 <1>   0.0800 
 46 H       -5.2430     4.3890    -1.5820 H     1 <1>   0.0800 
 47 H       -5.1410     3.5110    -3.0920 H     1 <1>   0.0800 
 48 H        7.3950     1.6680     1.2280 H     1 <1>   0.1500 
 49 H        6.9810     3.0560    -2.7740 H     1 <1>   0.1500 
 50 H        9.2610     3.8240    -2.7570 H     1 <1>   0.1500 
 51 H       11.3500     1.4650     2.4840 H     1 <1>   0.0800 
 52 H       11.7170     2.8850     1.5160 H     1 <1>   0.0800 
 53 H       11.3520     1.3430     0.7260 H     1 <1>   0.0800 
 54 H       12.4960     4.7410    -1.4280 H     1 <1>   0.0800 
 55 H       10.8910     5.3210    -1.8590 H     1 <1>   0.0800 
 56 H       11.5540     3.8650    -2.6280 H     1 <1>   0.0800 
@<TRIPOS>BOND
  1   1   2  2   
  2   2   3  am  
  3   2   4  am  
  4   3   5  1   
  5   3   6  1   
  6   4   7  1   
  7   4  31  1   
  8   5   8  1   
  9   5   9  1   
 10   5  32  1   
 11   6  10  1   
 12   6  33  1   
 13   6  34  1   
 14   7  11  ar  
 15   7  12  ar  
 16   8  35  1   
 17   8  36  1   
 18   8  37  1   
 19   9  38  1   
 20   9  39  1   
 21   9  40  1   
 22  10  13  1   
 23  10  14  2   
 24  11  15  ar  
 25  11  41  1   
 26  12  16  ar  
 27  12  42  1   
 28  13  17  1   
 29  14  18  1   
 30  15  19  ar  
 31  15  20  1   
 32  16  19  ar  
 33  16  43  1   
 34  17  18  2   
 35  18  21  1   
 36  19  44  1   
 37  20  45  1   
 38  20  46  1   
 39  20  47  1   
 40  21  22  ar  
 41  21  23  ar  
 42  22  24  ar  
 43  22  48  1   
 44  23  25  ar  
 45  23  49  1   
 46  24  26  1   
 47  24  27  ar  
 48  25  27  ar  
 49  25  50  1   
 50  26  28  1   
 51  27  29  1   
 52  28  51  1   
 53  28  52  1   
 54  28  53  1   
 55  29  30  1   
 56  30  54  1   
 57  30  55  1   
 58  30  56  1   
@<TRIPOS>SUBSTRUCTURE
  1 ****  10 GROUP 4 **** **** 0

# MOE 2024.06 (io_trps.svl 2023.06)
