@<TRIPOS>MOLECULE
2,7-Dimethyl-5-oxo-4-thiophen-2-yl-1,4,5,6,7,8-hexahydro-quinoline-3-carboxylic
51 54 1 0 0 
SMALL
USER_CHARGES


@<TRIPOS>ATOM
  1 S       -0.7800    -1.6540     1.9330 S.3   1 <1>  -0.0800 
  2 C       -0.9980    -1.1860     0.2500 C.2   1 <1>  -0.1400 
  3 C       -0.6790     0.0240     2.4330 C.2   1 <1>  -0.1100 
  4 C       -0.9880     0.1550     0.1330 C.2   1 <1>  -0.1500 
  5 C       -1.1520    -2.2940    -0.7900 C.3   1 <1>   0.3760 
  6 C       -0.8070     0.8440     1.3740 C.2   1 <1>  -0.1500 
  7 C       -2.4230    -3.0920    -0.4980 C.2   1 <1>  -0.1240 
  8 C        0.1220    -3.1460    -0.7750 C.2   1 <1>  -0.1240 
  9 C       -2.3360    -4.3920    -0.1200 C.2   1 <1>  -0.0380 
 10 C       -3.6580    -2.3970    -0.6370 C.2   1 <1>   0.4950 
 11 C        0.0620    -4.4530    -0.4000 C.2   1 <1>  -0.0380 
 12 C        1.2820    -2.4020    -1.1520 C.2   1 <1>   0.6160 
 13 N       -1.1280    -5.0400    -0.0290 N.pl3 1 <1>  -0.6000 
 14 C       -3.5710    -5.2140     0.2220 C.3   1 <1>  -0.0220 
 15 O       -3.7760    -1.2930    -1.1140 O.2   1 <1>  -0.5700 
 16 C       -4.9210    -3.0980    -0.1680 C.3   1 <1>  -0.0990 
 17 C        1.2440    -5.4090    -0.3600 C.3   1 <1>  -0.1020 
 18 O        1.2750    -1.7080    -2.1510 O.2   1 <1>  -0.5700 
 19 N        2.3940    -2.4630    -0.3580 N.am  1 <1>  -0.5470 
 20 C       -4.8450    -4.6170    -0.4060 C.3   1 <1>  -0.0800 
 21 C        3.6770    -1.9760    -0.4550 C.ar  1 <1>   0.4270 
 22 C       -6.1010    -5.3180     0.1280 C.3   1 <1>  -0.2400 
 23 N        4.4480    -2.3910     0.5400 N.ar  1 <1>  -0.6200 
 24 C        4.1340    -1.1440    -1.4760 C.ar  1 <1>  -0.1500 
 25 C        5.7010    -1.9720     0.5310 C.ar  1 <1>   0.1670 
 26 C        5.4400    -0.7150    -1.4800 C.ar  1 <1>  -0.1500 
 27 C        6.2390    -1.1470    -0.4430 C.ar  1 <1>  -0.1500 
 28 C        6.5640    -2.4540     1.6780 C.3   1 <1>  -0.0970 
 29 H       -0.5330     0.2200     3.4800 H     1 <1>   0.1500 
 30 H       -1.1050     0.6980    -0.7890 H     1 <1>   0.1500 
 31 H       -1.2570    -1.8470    -1.7630 H     1 <1>   0.0800 
 32 H       -0.7810     1.9190     1.4070 H     1 <1>   0.1500 
 33 H       -1.1130    -6.0190     0.2800 H     1 <1>   0.4000 
 34 H       -3.6670    -5.2500     1.2930 H     1 <1>   0.0800 
 35 H       -3.4470    -6.2200    -0.1380 H     1 <1>   0.0800 
 36 H       -5.7620    -2.6900    -0.6980 H     1 <1>   0.0800 
 37 H       -5.0510    -2.8900     0.8780 H     1 <1>   0.0800 
 38 H        0.9840    -6.3310    -0.8500 H     1 <1>   0.0800 
 39 H        1.5100    -5.6220     0.6590 H     1 <1>   0.0800 
 40 H        2.1030    -5.0110    -0.8670 H     1 <1>   0.0800 
 41 H        2.2680    -2.9770     0.5090 H     1 <1>   0.3700 
 42 H       -4.7940    -4.7800    -1.4700 H     1 <1>   0.0800 
 43 H       -6.1960    -5.1760     1.1900 H     1 <1>   0.0800 
 44 H       -6.0550    -6.3740    -0.0750 H     1 <1>   0.0800 
 45 H       -6.9800    -4.9230    -0.3500 H     1 <1>   0.0800 
 46 H        3.4740    -0.8320    -2.2610 H     1 <1>   0.1500 
 47 H        5.8200    -0.0730    -2.2560 H     1 <1>   0.1500 
 48 H        7.2680    -0.8410    -0.3960 H     1 <1>   0.1500 
 49 H        6.1360    -2.1280     2.6090 H     1 <1>   0.0800 
 50 H        7.5640    -2.0700     1.6010 H     1 <1>   0.0800 
 51 H        6.6020    -3.5280     1.6720 H     1 <1>   0.0800 
@<TRIPOS>BOND
  1   1   2  1   
  2   1   3  1   
  3   2   4  2   
  4   2   5  1   
  5   3   6  2   
  6   3  29  1   
  7   4   6  1   
  8   4  30  1   
  9   5   7  1   
 10   5   8  1   
 11   5  31  1   
 12   6  32  1   
 13   7   9  2   
 14   7  10  1   
 15   8  11  2   
 16   8  12  1   
 17   9  13  1   
 18   9  14  1   
 19  10  15  2   
 20  10  16  1   
 21  11  13  1   
 22  11  17  1   
 23  12  18  2   
 24  12  19  am  
 25  13  33  1   
 26  14  20  1   
 27  14  34  1   
 28  14  35  1   
 29  16  20  1   
 30  16  36  1   
 31  16  37  1   
 32  17  38  1   
 33  17  39  1   
 34  17  40  1   
 35  19  21  1   
 36  19  41  1   
 37  20  22  1   
 38  20  42  1   
 39  21  23  ar  
 40  21  24  ar  
 41  22  43  1   
 42  22  44  1   
 43  22  45  1   
 44  23  25  ar  
 45  24  26  ar  
 46  24  46  1   
 47  25  27  ar  
 48  25  28  1   
 49  26  27  ar  
 50  26  47  1   
 51  27  48  1   
 52  28  49  1   
 53  28  50  1   
 54  28  51  1   
@<TRIPOS>SUBSTRUCTURE
  1 ****   8 GROUP 4 **** **** 0

# MOE 2024.06 (io_trps.svl 2023.06)
