@<TRIPOS>MOLECULE
2-(1-Bicyclo[2.2.1]hept-5-en-2-yl-1H-tetrazol-5-ylsulfanyl)-N-(2,5-dimethoxy-phe
48 51 1 0 0 
SMALL
USER_CHARGES


@<TRIPOS>ATOM
  1 S       -0.0620    -0.4660    -0.5310 S.3   1 <1>  -0.2860 
  2 C       -1.7860    -0.2950    -0.0510 C.2   1 <1>   0.2420 
  3 C        0.6990     1.1410     0.0170 C.3   1 <1>   0.1310 
  4 N       -2.2570     0.7500     0.5070 N.2   1 <1>  -0.3380 
  5 N       -2.7180    -1.2110    -0.2530 N.pl3 1 <1>   0.3140 
  6 C        2.2150     1.0820    -0.0690 C.2   1 <1>   0.5690 
  7 N       -3.5540     0.4920     0.6470 N.2   1 <1>   0.0000 
  8 N       -3.8480    -0.6730     0.1810 N.2   1 <1>  -0.4180 
  9 C       -2.6060    -2.5230    -0.9550 C.3   1 <1>   0.1760 
 10 O        2.8080     2.1060    -0.3060 O.2   1 <1>  -0.5700 
 11 N        2.8270    -0.1230     0.1420 N.am  1 <1>  -0.5470 
 12 C       -3.8570    -3.4220    -0.8190 C.3   1 <1>   0.0580 
 13 C       -1.4660    -3.4480    -0.4250 C.3   1 <1>  -0.1600 
 14 C        4.1670    -0.5520     0.1620 C.ar  1 <1>   0.1170 
 15 C       -4.0640    -3.7270     0.6550 C.2   1 <1>  -0.2880 
 16 C       -3.2560    -4.7630    -1.2360 C.3   1 <1>  -0.1600 
 17 C       -2.1850    -4.7810    -0.1480 C.3   1 <1>   0.0580 
 18 C        4.4110    -1.9190     0.3410 C.ar  1 <1>   0.0830 
 19 C        5.2450     0.3130     0.0160 C.ar  1 <1>  -0.1500 
 20 C       -3.0750    -4.5250     1.0480 C.2   1 <1>  -0.2880 
 21 O        3.3190    -2.7350     0.4840 O.3   1 <1>  -0.3630 
 22 C        5.7180    -2.3950     0.3690 C.ar  1 <1>  -0.1500 
 23 C        6.5500    -0.1650     0.0440 C.ar  1 <1>   0.0830 
 24 C        3.4740    -4.1170     0.7270 C.3   1 <1>   0.0400 
 25 C        6.7780    -1.5190     0.2210 C.ar  1 <1>  -0.1500 
 26 O        7.6490     0.6230    -0.0940 O.3   1 <1>  -0.3630 
 27 C        7.5200     2.0120    -0.3110 C.3   1 <1>   0.0400 
 28 H        0.3910     1.3170     1.0300 H     1 <1>   0.0800 
 29 H        0.3120     1.9120    -0.6230 H     1 <1>   0.0800 
 30 H       -2.4390    -2.3180    -1.9980 H     1 <1>   0.0800 
 31 H        2.1870    -0.9110     0.2690 H     1 <1>   0.3700 
 32 H       -4.7320    -3.1290    -1.3740 H     1 <1>   0.0800 
 33 H       -1.0140    -3.0750     0.4780 H     1 <1>   0.0800 
 34 H       -0.7120    -3.5820    -1.1810 H     1 <1>   0.0800 
 35 H       -4.8890    -3.2950     1.1970 H     1 <1>   0.1500 
 36 H       -2.8490    -4.7610    -2.2330 H     1 <1>   0.0800 
 37 H       -3.9570    -5.5740    -1.1240 H     1 <1>   0.0800 
 38 H       -1.5810    -5.6700    -0.1010 H     1 <1>   0.0800 
 39 H        5.0570     1.3580    -0.1170 H     1 <1>   0.1500 
 40 H       -2.8480    -4.9480     2.0120 H     1 <1>   0.1500 
 41 H        5.9380    -3.4370     0.5030 H     1 <1>   0.1500 
 42 H        4.0300    -4.2520     1.6390 H     1 <1>   0.0800 
 43 H        3.9850    -4.5630    -0.1070 H     1 <1>   0.0800 
 44 H        2.4960    -4.5510     0.8300 H     1 <1>   0.0800 
 45 H        7.7910    -1.8780     0.2410 H     1 <1>   0.1500 
 46 H        8.5060     2.4290    -0.4040 H     1 <1>   0.0800 
 47 H        7.0140     2.4520     0.5310 H     1 <1>   0.0800 
 48 H        6.9660     2.1740    -1.2190 H     1 <1>   0.0800 
@<TRIPOS>BOND
  1   1   2  1   
  2   1   3  1   
  3   2   4  2   
  4   2   5  1   
  5   3   6  1   
  6   3  28  1   
  7   3  29  1   
  8   4   7  1   
  9   5   8  1   
 10   5   9  1   
 11   6  10  2   
 12   6  11  am  
 13   7   8  2   
 14   9  12  1   
 15   9  13  1   
 16   9  30  1   
 17  11  14  1   
 18  11  31  1   
 19  12  15  1   
 20  12  16  1   
 21  12  32  1   
 22  13  17  1   
 23  13  33  1   
 24  13  34  1   
 25  14  18  ar  
 26  14  19  ar  
 27  15  20  2   
 28  15  35  1   
 29  16  17  1   
 30  16  36  1   
 31  16  37  1   
 32  17  20  1   
 33  17  38  1   
 34  18  21  1   
 35  18  22  ar  
 36  19  23  ar  
 37  19  39  1   
 38  20  40  1   
 39  21  24  1   
 40  22  25  ar  
 41  22  41  1   
 42  23  25  ar  
 43  23  26  1   
 44  24  42  1   
 45  24  43  1   
 46  24  44  1   
 47  25  45  1   
 48  26  27  1   
 49  27  46  1   
 50  27  47  1   
 51  27  48  1   
@<TRIPOS>SUBSTRUCTURE
  1 ****   1 GROUP 4 **** **** 0

# MOE 2024.06 (io_trps.svl 2023.06)
