@<TRIPOS>MOLECULE
3,3-Dimethyl-N-(3-m-tolyl-[1,2,4]oxadiazol-5-ylmethyl)-butyramide
42 43 1 0 0 
SMALL
USER_CHARGES


@<TRIPOS>ATOM
  1 O       -0.2380     1.7070     2.6500 O.2   1 <1>  -0.5700 
  2 C        0.0890     1.9650     1.5180 C.2   1 <1>   0.5690 
  3 N        1.3540     1.7590     1.0860 N.am  1 <1>  -0.7300 
  4 C       -0.9280     2.5610     0.5610 C.3   1 <1>  -0.0990 
  5 C        2.4510     1.2300     1.9380 C.3   1 <1>   0.3200 
  6 C       -1.6830     1.5430    -0.3250 C.3   1 <1>   0.0000 
  7 C        3.7520     1.9780     1.6890 C.2   1 <1>   0.2980 
  8 C       -2.6890     2.3060    -1.2000 C.3   1 <1>  -0.2400 
  9 C       -0.7200     0.7790    -1.2480 C.3   1 <1>  -0.2400 
 10 C       -2.4540     0.5350     0.5390 C.3   1 <1>  -0.2400 
 11 O        3.8570     3.2060     2.1220 O.3   1 <1>  -0.0190 
 12 N        4.7710     1.5240     1.0830 N.2   1 <1>  -0.5650 
 13 N        5.0490     3.5660     1.7610 N.2   1 <1>  -0.4100 
 14 C        5.5950     2.5760     1.1480 C.2   1 <1>   0.4620 
 15 C        6.9360     2.5640     0.5840 C.ar  1 <1>   0.0540 
 16 C        7.4620     1.4320    -0.0430 C.ar  1 <1>  -0.1500 
 17 C        7.7560     3.6930     0.6470 C.ar  1 <1>  -0.1500 
 18 C        8.7380     1.4190    -0.5820 C.ar  1 <1>  -0.1440 
 19 C        9.0310     3.6910     0.1150 C.ar  1 <1>  -0.1500 
 20 C        9.5230     2.5550    -0.5000 C.ar  1 <1>  -0.1500 
 21 C        9.2810     0.1710    -1.2550 C.3   1 <1>  -0.0970 
 22 H        1.6060     1.9640     0.1180 H     1 <1>   0.3700 
 23 H       -0.4260     3.2790    -0.0610 H     1 <1>   0.0800 
 24 H       -1.6420     3.1060     1.1530 H     1 <1>   0.0800 
 25 H        2.5960     0.1890     1.7120 H     1 <1>   0.0800 
 26 H        2.1880     1.3150     2.9780 H     1 <1>   0.0800 
 27 H       -2.1840     3.0140    -1.8330 H     1 <1>   0.0800 
 28 H       -3.3930     2.8410    -0.5870 H     1 <1>   0.0800 
 29 H       -3.2390     1.6260    -1.8260 H     1 <1>   0.0800 
 30 H       -0.1440     1.4620    -1.8470 H     1 <1>   0.0800 
 31 H       -1.2710     0.1340    -1.9100 H     1 <1>   0.0800 
 32 H       -0.0470     0.1650    -0.6780 H     1 <1>   0.0800 
 33 H       -1.7800    -0.0550     1.1360 H     1 <1>   0.0800 
 34 H       -3.1280     1.0450     1.2040 H     1 <1>   0.0800 
 35 H       -3.0270    -0.1340    -0.0770 H     1 <1>   0.0800 
 36 H        6.8560     0.5450    -0.1070 H     1 <1>   0.1500 
 37 H        7.3890     4.5860     1.1220 H     1 <1>   0.1500 
 38 H        9.6430     4.5750     0.1780 H     1 <1>   0.1500 
 39 H       10.5180     2.5580    -0.9110 H     1 <1>   0.1500 
 40 H        8.4830    -0.4990    -1.5190 H     1 <1>   0.0800 
 41 H        9.9540    -0.3380    -0.5890 H     1 <1>   0.0800 
 42 H        9.8130     0.4350    -2.1520 H     1 <1>   0.0800 
@<TRIPOS>BOND
  1   1   2  2   
  2   2   3  am  
  3   2   4  1   
  4   3   5  1   
  5   3  22  1   
  6   4   6  1   
  7   4  23  1   
  8   4  24  1   
  9   5   7  1   
 10   5  25  1   
 11   5  26  1   
 12   6   8  1   
 13   6   9  1   
 14   6  10  1   
 15   7  11  1   
 16   7  12  2   
 17   8  27  1   
 18   8  28  1   
 19   8  29  1   
 20   9  30  1   
 21   9  31  1   
 22   9  32  1   
 23  10  33  1   
 24  10  34  1   
 25  10  35  1   
 26  11  13  1   
 27  12  14  1   
 28  13  14  2   
 29  14  15  1   
 30  15  16  ar  
 31  15  17  ar  
 32  16  18  ar  
 33  16  36  1   
 34  17  19  ar  
 35  17  37  1   
 36  18  20  ar  
 37  18  21  1   
 38  19  20  ar  
 39  19  38  1   
 40  20  39  1   
 41  21  40  1   
 42  21  41  1   
 43  21  42  1   
@<TRIPOS>SUBSTRUCTURE
  1 ****   7 GROUP 4 **** **** 0

# MOE 2024.06 (io_trps.svl 2023.06)
