@<TRIPOS>MOLECULE
4-Chloro-N-methyl-N-[2-oxo-2-(4-pyridin-2-yl-piperazin-1-yl)-ethyl]-benzenesulfo
48 50 1 0 0 
SMALL
USER_CHARGES


@<TRIPOS>ATOM
  1 CL       3.2110     1.6960     2.1470 Cl    1 <1>  -0.1770 
  2 C        3.8810     0.3790     1.2200 C.ar  1 <1>   0.1770 
  3 C        3.1640    -0.7950     1.0920 C.ar  1 <1>  -0.1500 
  4 C        5.1190     0.5260     0.6270 C.ar  1 <1>  -0.1500 
  5 C        3.7020    -1.8380     0.3560 C.ar  1 <1>  -0.1500 
  6 C        5.6440    -0.5250    -0.1070 C.ar  1 <1>  -0.1500 
  7 C        4.9500    -1.7230    -0.2540 C.ar  1 <1>  -0.0090 
  8 S        5.6660    -3.0950    -1.2030 S.o2  1 <1>   1.4470 
  9 O        4.8120    -4.2610    -1.1400 O.2   1 <1>  -0.6500 
 10 O        6.1130    -2.5990    -2.4850 O.2   1 <1>  -0.6500 
 11 N        7.0680    -3.4780    -0.3330 N.am  1 <1>  -0.8490 
 12 C        7.9110    -4.4270    -1.1090 C.3   1 <1>   0.2570 
 13 C        6.7900    -4.0380     0.9980 C.3   1 <1>   0.1160 
 14 C        9.3220    -4.6360    -0.5390 C.2   1 <1>   0.5690 
 15 O        9.5620    -5.7050    -0.0230 O.2   1 <1>  -0.5700 
 16 N       10.2630    -3.6360    -0.5910 N.am  1 <1>  -0.6600 
 17 C       11.5910    -3.7630     0.0800 C.3   1 <1>   0.1400 
 18 C       10.0030    -2.2350    -1.0480 C.3   1 <1>   0.1400 
 19 C       11.6830    -2.8080     1.2850 C.3   1 <1>   0.2090 
 20 C       10.0690    -1.2610     0.1420 C.3   1 <1>   0.2090 
 21 N       11.3520    -1.3980     0.9070 N.pl3 1 <1>  -0.8380 
 22 C       12.4080    -0.5620     0.5930 C.ar  1 <1>   0.4100 
 23 N       12.5490    -0.2060    -0.6790 N.ar  1 <1>  -0.6200 
 24 C       13.2720    -0.1440     1.6020 C.ar  1 <1>  -0.1500 
 25 C       13.5780     0.5820    -0.9470 C.ar  1 <1>   0.1600 
 26 C       14.3380     0.6740     1.3090 C.ar  1 <1>  -0.1500 
 27 C       14.4880     1.0430    -0.0130 C.ar  1 <1>  -0.1500 
 28 H        2.2000    -0.8860     1.5600 H     1 <1>   0.1500 
 29 H        5.6590     1.4500     0.7380 H     1 <1>   0.1500 
 30 H        3.1450    -2.7550     0.2530 H     1 <1>   0.1500 
 31 H        6.6090    -0.4170    -0.5750 H     1 <1>   0.1500 
 32 H        8.0310    -4.0730    -2.1170 H     1 <1>   0.0800 
 33 H        7.4190    -5.3830    -1.1660 H     1 <1>   0.0800 
 34 H        6.1890    -3.3540     1.5730 H     1 <1>   0.0800 
 35 H        7.7090    -4.2030     1.5340 H     1 <1>   0.0800 
 36 H        6.2650    -4.9760     0.9140 H     1 <1>   0.0800 
 37 H       12.3660    -3.5150    -0.6230 H     1 <1>   0.0800 
 38 H       11.7550    -4.7730     0.4110 H     1 <1>   0.0800 
 39 H        9.0450    -2.1450    -1.5260 H     1 <1>   0.0800 
 40 H       10.7520    -1.9550    -1.7680 H     1 <1>   0.0800 
 41 H       12.6780    -2.8540     1.6920 H     1 <1>   0.0800 
 42 H       10.9990    -3.1370     2.0480 H     1 <1>   0.0800 
 43 H        9.2430    -1.4560     0.8030 H     1 <1>   0.0800 
 44 H        9.9690    -0.2510    -0.2180 H     1 <1>   0.0800 
 45 H       13.0860    -0.4670     2.6070 H     1 <1>   0.1500 
 46 H       13.7030     0.8770    -1.9750 H     1 <1>   0.1500 
 47 H       15.0200     1.0110     2.0690 H     1 <1>   0.1500 
 48 H       15.2980     1.6810    -0.3130 H     1 <1>   0.1500 
@<TRIPOS>BOND
  1   1   2  1   
  2   2   3  ar  
  3   2   4  ar  
  4   3   5  ar  
  5   3  28  1   
  6   4   6  ar  
  7   4  29  1   
  8   5   7  ar  
  9   5  30  1   
 10   6   7  ar  
 11   6  31  1   
 12   7   8  1   
 13   8   9  2   
 14   8  10  2   
 15   8  11  am  
 16  11  12  1   
 17  11  13  1   
 18  12  14  1   
 19  12  32  1   
 20  12  33  1   
 21  13  34  1   
 22  13  35  1   
 23  13  36  1   
 24  14  15  2   
 25  14  16  am  
 26  16  17  1   
 27  16  18  1   
 28  17  19  1   
 29  17  37  1   
 30  17  38  1   
 31  18  20  1   
 32  18  39  1   
 33  18  40  1   
 34  19  21  1   
 35  19  41  1   
 36  19  42  1   
 37  20  21  1   
 38  20  43  1   
 39  20  44  1   
 40  21  22  1   
 41  22  23  ar  
 42  22  24  ar  
 43  23  25  ar  
 44  24  26  ar  
 45  24  45  1   
 46  25  27  ar  
 47  25  46  1   
 48  26  27  ar  
 49  26  47  1   
 50  27  48  1   
@<TRIPOS>SUBSTRUCTURE
  1 ****  20 GROUP 4 **** **** 0

# MOE 2024.06 (io_trps.svl 2023.06)
