@<TRIPOS>MOLECULE
1-(5-Oxo-1-p-tolyl-pyrrolidine-3-carbonyl)-piperidine-4-carboxylic acid tert-but
59 61 1 0 0 
SMALL
USER_CHARGES


@<TRIPOS>ATOM
  1 O       -0.1750    -1.9690     2.9180 O.2   1 <1>  -0.5700 
  2 C        0.8020    -1.9390     2.2120 C.2   1 <1>   0.5690 
  3 N        0.8840    -2.2920     0.8950 N.am  1 <1>  -0.4770 
  4 C        2.1270    -1.4570     2.7330 C.3   1 <1>  -0.0990 
  5 C       -0.1390    -2.7430     0.0360 C.ar  1 <1>   0.1170 
  6 C        2.2640    -2.1000     0.4000 C.3   1 <1>   0.1400 
  7 C        2.9210    -1.1890     1.4470 C.3   1 <1>  -0.0190 
  8 C       -1.4440    -2.2770     0.1620 C.ar  1 <1>  -0.1500 
  9 C        0.1310    -3.6620    -0.9750 C.ar  1 <1>  -0.1500 
 10 C        4.4240    -1.3980     1.6040 C.2   1 <1>   0.5690 
 11 C       -2.4420    -2.7070    -0.6940 C.ar  1 <1>  -0.1500 
 12 C       -0.8650    -4.0920    -1.8340 C.ar  1 <1>  -0.1500 
 13 O        4.8730    -2.4800     1.3070 O.2   1 <1>  -0.5700 
 14 N        5.2360    -0.3870     2.0600 N.am  1 <1>  -0.6600 
 15 C       -2.1590    -3.6170    -1.6990 C.ar  1 <1>  -0.1430 
 16 C        6.7170    -0.4970     1.9610 C.3   1 <1>   0.1400 
 17 C        4.7810     0.9330     2.5760 C.3   1 <1>   0.1400 
 18 C       -3.2550    -4.0870    -2.6390 C.3   1 <1>  -0.0970 
 19 C        7.2290     0.5740     0.9930 C.3   1 <1>  -0.1600 
 20 C        5.2450     2.0270     1.6120 C.3   1 <1>  -0.1600 
 21 C        6.7730     1.9880     1.4020 C.3   1 <1>  -0.0190 
 22 C        7.2280     3.0220     0.3750 C.2   1 <1>   0.5690 
 23 O        6.6380     3.1010    -0.6750 O.2   1 <1>  -0.5700 
 24 N        8.2920     3.8100     0.6920 N.am  1 <1>  -0.7300 
 25 C        8.9260     4.8590    -0.1100 C.3   1 <1>   0.3000 
 26 C        9.4830     4.2590    -1.4010 C.3   1 <1>  -0.2400 
 27 C        7.9170     5.9700    -0.4010 C.3   1 <1>  -0.2400 
 28 C       10.0720     5.4160     0.7310 C.3   1 <1>  -0.2400 
 29 H        2.5770    -2.2430     3.3120 H     1 <1>   0.0800 
 30 H        2.0080    -0.5740     3.3330 H     1 <1>   0.0800 
 31 H        2.2650    -1.6420    -0.5740 H     1 <1>   0.0800 
 32 H        2.7460    -3.0610     0.3510 H     1 <1>   0.0800 
 33 H        2.7380    -0.1820     1.1200 H     1 <1>   0.0800 
 34 H       -1.6830    -1.5720     0.9360 H     1 <1>   0.1500 
 35 H        1.1230    -4.0530    -1.0930 H     1 <1>   0.1500 
 36 H       -3.4410    -2.3280    -0.5720 H     1 <1>   0.1500 
 37 H       -0.6290    -4.8010    -2.6070 H     1 <1>   0.1500 
 38 H        7.0090    -1.4710     1.6060 H     1 <1>   0.0800 
 39 H        7.1500    -0.3570     2.9370 H     1 <1>   0.0800 
 40 H        5.2160     1.0960     3.5480 H     1 <1>   0.0800 
 41 H        3.7140     0.9720     2.6880 H     1 <1>   0.0800 
 42 H       -3.3210    -3.4220    -3.4800 H     1 <1>   0.0800 
 43 H       -4.2020    -4.1020    -2.1310 H     1 <1>   0.0800 
 44 H       -3.0460    -5.0790    -2.9940 H     1 <1>   0.0800 
 45 H        6.8630     0.3490     0.0050 H     1 <1>   0.0800 
 46 H        8.3030     0.5350     0.9550 H     1 <1>   0.0800 
 47 H        4.9590     2.9900     1.9960 H     1 <1>   0.0800 
 48 H        4.7430     1.8920     0.6690 H     1 <1>   0.0800 
 49 H        7.2360     2.2250     2.3430 H     1 <1>   0.0800 
 50 H        8.7470     3.6740     1.5920 H     1 <1>   0.3700 
 51 H        8.6870     3.8920    -2.0230 H     1 <1>   0.0800 
 52 H       10.1550     3.4490    -1.1820 H     1 <1>   0.0800 
 53 H       10.0180     5.0070    -1.9570 H     1 <1>   0.0800 
 54 H        7.5020     6.3530     0.5140 H     1 <1>   0.0800 
 55 H        7.1180     5.6050    -1.0210 H     1 <1>   0.0800 
 56 H        8.3950     6.7780    -0.9230 H     1 <1>   0.0800 
 57 H        9.7000     5.8350     1.6500 H     1 <1>   0.0800 
 58 H       10.5780     6.1960     0.1920 H     1 <1>   0.0800 
 59 H       10.7890     4.6460     0.9540 H     1 <1>   0.0800 
@<TRIPOS>BOND
  1   1   2  2   
  2   2   3  am  
  3   2   4  1   
  4   3   5  1   
  5   3   6  1   
  6   4   7  1   
  7   4  29  1   
  8   4  30  1   
  9   5   8  ar  
 10   5   9  ar  
 11   6   7  1   
 12   6  31  1   
 13   6  32  1   
 14   7  10  1   
 15   7  33  1   
 16   8  11  ar  
 17   8  34  1   
 18   9  12  ar  
 19   9  35  1   
 20  10  13  2   
 21  10  14  am  
 22  11  15  ar  
 23  11  36  1   
 24  12  15  ar  
 25  12  37  1   
 26  14  16  1   
 27  14  17  1   
 28  15  18  1   
 29  16  19  1   
 30  16  38  1   
 31  16  39  1   
 32  17  20  1   
 33  17  40  1   
 34  17  41  1   
 35  18  42  1   
 36  18  43  1   
 37  18  44  1   
 38  19  21  1   
 39  19  45  1   
 40  19  46  1   
 41  20  21  1   
 42  20  47  1   
 43  20  48  1   
 44  21  22  1   
 45  21  49  1   
 46  22  23  2   
 47  22  24  am  
 48  24  25  1   
 49  24  50  1   
 50  25  26  1   
 51  25  27  1   
 52  25  28  1   
 53  26  51  1   
 54  26  52  1   
 55  26  53  1   
 56  27  54  1   
 57  27  55  1   
 58  27  56  1   
 59  28  57  1   
 60  28  58  1   
 61  28  59  1   
@<TRIPOS>SUBSTRUCTURE
  1 ****   7 GROUP 4 **** **** 0

# MOE 2024.06 (io_trps.svl 2023.06)
