@<TRIPOS>MOLECULE
1-[3-(3,4-Dimethoxy-phenyl)-[1,2,4]oxadiazol-5-ylmethyl]-1-isopropyl-3-(2-methox
57 59 1 0 0 
SMALL
USER_CHARGES


@<TRIPOS>ATOM
  1 O        0.2250    -0.1790     0.4500 O.2   1 <1>  -0.5700 
  2 C        0.4080     1.0210     0.5300 C.2   1 <1>   0.6900 
  3 N        1.6050     1.5000     1.0110 N.am  1 <1>  -0.6600 
  4 N       -0.5600     1.8980     0.1480 N.am  1 <1>  -0.5470 
  5 C        1.9660     2.9240     1.2760 C.3   1 <1>   0.2200 
  6 C        2.7140     0.5300     1.2970 C.3   1 <1>   0.3200 
  7 C       -1.8700     1.7950    -0.3510 C.ar  1 <1>   0.1170 
  8 C        1.0280     3.5580     2.3050 C.3   1 <1>  -0.2400 
  9 C        2.0440     3.7280    -0.0240 C.3   1 <1>  -0.2400 
 10 C        3.9130     0.7570     0.3870 C.2   1 <1>   0.2980 
 11 C       -2.5680     2.9840    -0.5980 C.ar  1 <1>   0.0830 
 12 C       -2.5000     0.5830    -0.6100 C.ar  1 <1>  -0.1500 
 13 O        3.7920     0.4930    -0.8870 O.3   1 <1>  -0.0190 
 14 N        5.0500     1.1970     0.7470 N.2   1 <1>  -0.5650 
 15 O       -1.9150     4.1580    -0.3330 O.3   1 <1>  -0.3630 
 16 C       -3.8690     2.9390    -1.0910 C.ar  1 <1>  -0.1500 
 17 C       -3.7930     0.5450    -1.1000 C.ar  1 <1>  -0.1500 
 18 N        4.9510     0.7960    -1.3830 N.2   1 <1>  -0.4100 
 19 C        5.6980     1.2130    -0.4230 C.2   1 <1>   0.4620 
 20 C       -2.5280     5.4060    -0.5760 C.3   1 <1>   0.0400 
 21 C       -4.4780     1.7220    -1.3410 C.ar  1 <1>  -0.1500 
 22 C        7.0750     1.6570    -0.5530 C.ar  1 <1>   0.0540 
 23 C        7.8270     2.0560     0.5550 C.ar  1 <1>  -0.1500 
 24 C        7.7060     1.6990    -1.7990 C.ar  1 <1>  -0.1500 
 25 C        9.1390     2.4770     0.4340 C.ar  1 <1>   0.0830 
 26 C        9.0130     2.1330    -1.9370 C.ar  1 <1>  -0.1500 
 27 O        9.7970     2.8070     1.5710 O.3   1 <1>  -0.3630 
 28 C        9.7340     2.5420    -0.8300 C.ar  1 <1>   0.0830 
 29 C       10.8620     1.9600     1.9430 C.3   1 <1>   0.0400 
 30 O       10.9950     2.9920    -1.0360 O.3   1 <1>  -0.3630 
 31 C       11.2450     4.3440    -0.7170 C.3   1 <1>   0.0400 
 32 H       -0.2720     2.8660     0.2560 H     1 <1>   0.3700 
 33 H        2.9520     2.9440     1.7120 H     1 <1>   0.0800 
 34 H        2.3920    -0.4890     1.1810 H     1 <1>   0.0800 
 35 H        3.0240     0.6520     2.3190 H     1 <1>   0.0800 
 36 H        0.0410     3.7190     1.9150 H     1 <1>   0.0800 
 37 H        1.4190     4.5140     2.6040 H     1 <1>   0.0800 
 38 H        0.9650     2.9350     3.1790 H     1 <1>   0.0800 
 39 H        1.0820     3.8620    -0.4800 H     1 <1>   0.0800 
 40 H        2.6990     3.2380    -0.7220 H     1 <1>   0.0800 
 41 H        2.4490     4.7020     0.1820 H     1 <1>   0.0800 
 42 H       -1.9860    -0.3430    -0.4310 H     1 <1>   0.1500 
 43 H       -4.4270     3.8340    -1.2880 H     1 <1>   0.1500 
 44 H       -4.2640    -0.4040    -1.2930 H     1 <1>   0.1500 
 45 H       -1.8300     6.1790    -0.3070 H     1 <1>   0.0800 
 46 H       -3.4120     5.4850     0.0310 H     1 <1>   0.0800 
 47 H       -2.7680     5.4790    -1.6220 H     1 <1>   0.0800 
 48 H       -5.4840     1.6890    -1.7220 H     1 <1>   0.1500 
 49 H        7.3870     2.0340     1.5350 H     1 <1>   0.1500 
 50 H        7.1640     1.3890    -2.6760 H     1 <1>   0.1500 
 51 H        9.4780     2.1630    -2.9060 H     1 <1>   0.1500 
 52 H       11.2370     2.2880     2.8950 H     1 <1>   0.0800 
 53 H       11.6390     2.0170     1.2030 H     1 <1>   0.0800 
 54 H       10.4930     0.9520     2.0190 H     1 <1>   0.0800 
 55 H       12.2320     4.5930    -1.0620 H     1 <1>   0.0800 
 56 H       11.1860     4.4770     0.3480 H     1 <1>   0.0800 
 57 H       10.5150     4.9590    -1.2120 H     1 <1>   0.0800 
@<TRIPOS>BOND
  1   1   2  2   
  2   2   3  am  
  3   2   4  am  
  4   3   5  1   
  5   3   6  1   
  6   4   7  1   
  7   4  32  1   
  8   5   8  1   
  9   5   9  1   
 10   5  33  1   
 11   6  10  1   
 12   6  34  1   
 13   6  35  1   
 14   7  11  ar  
 15   7  12  ar  
 16   8  36  1   
 17   8  37  1   
 18   8  38  1   
 19   9  39  1   
 20   9  40  1   
 21   9  41  1   
 22  10  13  1   
 23  10  14  2   
 24  11  15  1   
 25  11  16  ar  
 26  12  17  ar  
 27  12  42  1   
 28  13  18  1   
 29  14  19  1   
 30  15  20  1   
 31  16  21  ar  
 32  16  43  1   
 33  17  21  ar  
 34  17  44  1   
 35  18  19  2   
 36  19  22  1   
 37  20  45  1   
 38  20  46  1   
 39  20  47  1   
 40  21  48  1   
 41  22  23  ar  
 42  22  24  ar  
 43  23  25  ar  
 44  23  49  1   
 45  24  26  ar  
 46  24  50  1   
 47  25  27  1   
 48  25  28  ar  
 49  26  28  ar  
 50  26  51  1   
 51  27  29  1   
 52  28  30  1   
 53  29  52  1   
 54  29  53  1   
 55  29  54  1   
 56  30  31  1   
 57  31  55  1   
 58  31  56  1   
 59  31  57  1   
@<TRIPOS>SUBSTRUCTURE
  1 ****  10 GROUP 4 **** **** 0

# MOE 2024.06 (io_trps.svl 2023.06)
