@<TRIPOS>MOLECULE
N-[3-(4-Chloro-phenyl)-[1,2,4]oxadiazol-5-ylmethyl]-3-cyclopentyl-propionamide
43 45 1 0 0 
SMALL
USER_CHARGES


@<TRIPOS>ATOM
  1 CL      -1.6390     1.3500     2.6350 Cl    1 <1>  -0.1770 
  2 C       -3.1030     0.9930     1.7570 C.ar  1 <1>   0.1770 
  3 C       -3.3510     1.6310     0.5570 C.ar  1 <1>  -0.1500 
  4 C       -4.0000     0.0770     2.2710 C.ar  1 <1>  -0.1500 
  5 C       -4.5150     1.3440    -0.1350 C.ar  1 <1>  -0.1500 
  6 C       -5.1600    -0.2020     1.5700 C.ar  1 <1>  -0.1500 
  7 C       -5.4480     0.4230     0.3510 C.ar  1 <1>   0.0540 
  8 C       -6.6680     0.1310    -0.3850 C.2   1 <1>   0.4620 
  9 N       -7.0080     0.6530    -1.5100 N.2   1 <1>  -0.4100 
 10 N       -7.5880    -0.7350     0.0530 N.2   1 <1>  -0.5650 
 11 O       -8.1530     0.1530    -1.8550 O.3   1 <1>  -0.0190 
 12 C       -8.4460    -0.6680    -0.8820 C.2   1 <1>   0.2980 
 13 C       -9.7550    -1.4390    -0.9530 C.3   1 <1>   0.3200 
 14 N      -10.9160    -0.5510    -0.6820 N.am  1 <1>  -0.7300 
 15 C      -12.0390    -0.5200    -1.4350 C.2   1 <1>   0.5690 
 16 O      -12.1920    -1.2580    -2.3750 O.2   1 <1>  -0.5700 
 17 C      -13.1270     0.4710    -1.0770 C.3   1 <1>  -0.0990 
 18 C      -13.9380     0.0180     0.1500 C.3   1 <1>  -0.1600 
 19 C      -15.0060     1.0440     0.5590 C.3   1 <1>  -0.0800 
 20 C      -15.7870     0.6130     1.7970 C.3   1 <1>  -0.1600 
 21 C      -16.0970     1.2620    -0.4900 C.3   1 <1>  -0.1600 
 22 C      -17.0660     1.4470     1.7590 C.3   1 <1>  -0.1600 
 23 C      -17.3040     1.7970     0.2850 C.3   1 <1>  -0.1600 
 24 H       -2.6400     2.3410     0.1740 H     1 <1>   0.1500 
 25 H       -3.7880    -0.4090     3.2060 H     1 <1>   0.1500 
 26 H       -4.7030     1.8440    -1.0700 H     1 <1>   0.1500 
 27 H       -5.8550    -0.9180     1.9750 H     1 <1>   0.1500 
 28 H       -9.7410    -2.2250    -0.2190 H     1 <1>   0.0800 
 29 H       -9.8480    -1.8890    -1.9260 H     1 <1>   0.0800 
 30 H      -10.8120     0.0810     0.1130 H     1 <1>   0.3700 
 31 H      -13.7790     0.5730    -1.9260 H     1 <1>   0.0800 
 32 H      -12.6770     1.4280    -0.8900 H     1 <1>   0.0800 
 33 H      -13.2690    -0.1330     0.9800 H     1 <1>   0.0800 
 34 H      -14.4060    -0.9270    -0.0680 H     1 <1>   0.0800 
 35 H      -14.5380     1.9920     0.7690 H     1 <1>   0.0800 
 36 H      -15.2290     0.7730     2.7030 H     1 <1>   0.0800 
 37 H      -16.0450    -0.4300     1.7200 H     1 <1>   0.0800 
 38 H      -16.3600     0.3200    -0.9410 H     1 <1>   0.0800 
 39 H      -15.7850     1.9450    -1.2600 H     1 <1>   0.0800 
 40 H      -16.9230     2.3530     2.3220 H     1 <1>   0.0800 
 41 H      -17.8970     0.9050     2.1770 H     1 <1>   0.0800 
 42 H      -18.2140     1.3500    -0.0780 H     1 <1>   0.0800 
 43 H      -17.3730     2.8660     0.1730 H     1 <1>   0.0800 
@<TRIPOS>BOND
  1   1   2  1   
  2   2   3  ar  
  3   2   4  ar  
  4   3   5  ar  
  5   3  24  1   
  6   4   6  ar  
  7   4  25  1   
  8   5   7  ar  
  9   5  26  1   
 10   6   7  ar  
 11   6  27  1   
 12   7   8  1   
 13   8   9  2   
 14   8  10  1   
 15   9  11  1   
 16  10  12  2   
 17  11  12  1   
 18  12  13  1   
 19  13  14  1   
 20  13  28  1   
 21  13  29  1   
 22  14  15  am  
 23  14  30  1   
 24  15  16  2   
 25  15  17  1   
 26  17  18  1   
 27  17  31  1   
 28  17  32  1   
 29  18  19  1   
 30  18  33  1   
 31  18  34  1   
 32  19  20  1   
 33  19  21  1   
 34  19  35  1   
 35  20  22  1   
 36  20  36  1   
 37  20  37  1   
 38  21  23  1   
 39  21  38  1   
 40  21  39  1   
 41  22  23  1   
 42  22  40  1   
 43  22  41  1   
 44  23  42  1   
 45  23  43  1   
@<TRIPOS>SUBSTRUCTURE
  1 ****  12 GROUP 4 **** **** 0

# MOE 2024.06 (io_trps.svl 2023.06)
