@<TRIPOS>MOLECULE
Phenyl-(3,4,5,6-tetrahydro-2H-[4,4']bipyridinyl-1-yl)-methanone
38 40 1 0 0 
SMALL
USER_CHARGES


@<TRIPOS>ATOM
  1 O        0.4730    -0.5630     0.0410 O.2   1 <1>  -0.5700 
  2 C        0.2120    -1.7320     0.2560 C.2   1 <1>   0.5440 
  3 N        1.1440    -2.5200     0.9060 N.am  1 <1>  -0.6600 
  4 C       -1.0630    -2.2610    -0.1880 C.ar  1 <1>   0.0860 
  5 C        1.1200    -4.0090     0.8880 C.3   1 <1>   0.1400 
  6 C        2.3590    -1.9310     1.5360 C.3   1 <1>   0.1400 
  7 C       -1.4470    -2.1730    -1.5260 C.ar  1 <1>  -0.1500 
  8 C       -1.9500    -2.8710     0.6990 C.ar  1 <1>  -0.1500 
  9 C        2.3610    -4.5310     0.1590 C.3   1 <1>  -0.1600 
 10 C        3.6080    -2.4320     0.8070 C.3   1 <1>  -0.1600 
 11 C       -2.6540    -2.6860    -1.9640 C.ar  1 <1>  -0.1500 
 12 C       -3.1590    -3.3870     0.2680 C.ar  1 <1>  -0.1500 
 13 C        3.6530    -3.9670     0.7690 C.3   1 <1>   0.0630 
 14 C       -3.5120    -3.2970    -1.0660 C.ar  1 <1>  -0.1500 
 15 C        4.8790    -4.4660     0.0100 C.ar  1 <1>  -0.1440 
 16 C        5.8310    -5.2610     0.6190 C.ar  1 <1>  -0.1500 
 17 C        5.1100    -4.1600    -1.3180 C.ar  1 <1>  -0.1500 
 18 C        6.9290    -5.6970    -0.1050 C.ar  1 <1>   0.1600 
 19 C        6.2420    -4.6470    -1.9500 C.ar  1 <1>   0.1600 
 20 N        7.1580    -5.4090    -1.3750 N.ar  1 <1>  -0.6200 
 21 H        0.2410    -4.3770     0.3890 H     1 <1>   0.0800 
 22 H        1.1070    -4.3710     1.9010 H     1 <1>   0.0800 
 23 H        2.3940    -2.2240     2.5710 H     1 <1>   0.0800 
 24 H        2.3270    -0.8550     1.5000 H     1 <1>   0.0800 
 25 H       -0.7830    -1.6900    -2.2220 H     1 <1>   0.1500 
 26 H       -1.6820    -2.9350     1.7390 H     1 <1>   0.1500 
 27 H        2.2900    -4.2540    -0.8780 H     1 <1>   0.0800 
 28 H        2.3790    -5.6050     0.2100 H     1 <1>   0.0800 
 29 H        4.4850    -2.0570     1.3030 H     1 <1>   0.0800 
 30 H        3.6000    -2.0310    -0.1910 H     1 <1>   0.0800 
 31 H       -2.9280    -2.6070    -3.0020 H     1 <1>   0.1500 
 32 H       -3.8290    -3.8550     0.9700 H     1 <1>   0.1500 
 33 H        3.7160    -4.3170     1.7860 H     1 <1>   0.0800 
 34 H       -4.4530    -3.6960    -1.4050 H     1 <1>   0.1500 
 35 H        5.7330    -5.5480     1.6490 H     1 <1>   0.1500 
 36 H        4.4210    -3.5480    -1.8690 H     1 <1>   0.1500 
 37 H        7.6590    -6.3150     0.3890 H     1 <1>   0.1500 
 38 H        6.4020    -4.3960    -2.9840 H     1 <1>   0.1500 
@<TRIPOS>BOND
  1   1   2  2   
  2   2   3  am  
  3   2   4  1   
  4   3   5  1   
  5   3   6  1   
  6   4   7  ar  
  7   4   8  ar  
  8   5   9  1   
  9   5  21  1   
 10   5  22  1   
 11   6  10  1   
 12   6  23  1   
 13   6  24  1   
 14   7  11  ar  
 15   7  25  1   
 16   8  12  ar  
 17   8  26  1   
 18   9  13  1   
 19   9  27  1   
 20   9  28  1   
 21  10  13  1   
 22  10  29  1   
 23  10  30  1   
 24  11  14  ar  
 25  11  31  1   
 26  12  14  ar  
 27  12  32  1   
 28  13  15  1   
 29  13  33  1   
 30  14  34  1   
 31  15  16  ar  
 32  15  17  ar  
 33  16  18  ar  
 34  16  35  1   
 35  17  19  ar  
 36  17  36  1   
 37  18  20  ar  
 38  18  37  1   
 39  19  20  ar  
 40  19  38  1   
@<TRIPOS>SUBSTRUCTURE
  1 ****   9 GROUP 4 **** **** 0

# MOE 2024.06 (io_trps.svl 2023.06)
