@<TRIPOS>MOLECULE
5-Benzo[1,3]dioxol-5-yl-1-methyl-2-methylsulfanyl-5,8-dihydro-1H,6H-pyrido[2,3-d
39 42 1 0 0 
SMALL
USER_CHARGES


@<TRIPOS>ATOM
  1 S        0.2110     0.5970    -1.4330 S.3   1 <1>  -0.3710 
  2 C        1.5610     1.4390    -0.6180 C.2   1 <1>   0.6410 
  3 C       -1.2030     1.7880    -1.3510 C.3   1 <1>  -0.0100 
  4 N        1.3170     2.6050    -0.1580 N.2   1 <1>  -0.6610 
  5 N        2.7610     0.7660    -0.5350 N.pl3 1 <1>  -0.5190 
  6 C        2.3360     3.2430     0.4740 C.2   1 <1>   0.7670 
  7 C        3.7970     1.3890     0.1210 C.2   1 <1>   0.2090 
  8 C        2.9150    -0.5660    -1.2010 C.3   1 <1>   0.1290 
  9 O        2.0670     4.3120     1.0080 O.2   1 <1>  -0.5700 
 10 C        3.6240     2.6630     0.5640 C.2   1 <1>  -0.1240 
 11 N        4.9640     0.7060     0.3720 N.am  1 <1>  -0.5390 
 12 C        4.7750     3.4430     1.2090 C.3   1 <1>   0.2020 
 13 C        6.0530     1.2330     0.9770 C.2   1 <1>   0.5690 
 14 C        4.9380     4.8300     0.5840 C.ar  1 <1>  -0.1440 
 15 C        6.1440     2.7330     1.1280 C.3   1 <1>  -0.0990 
 16 O        6.9470     0.5270     1.3590 O.2   1 <1>  -0.5700 
 17 C        5.0250     4.9700    -0.8000 C.ar  1 <1>  -0.1500 
 18 C        5.0040     5.9630     1.3980 C.ar  1 <1>  -0.1500 
 19 C        5.1780     6.2380    -1.3230 C.ar  1 <1>   0.0830 
 20 C        5.1580     7.2310     0.8520 C.ar  1 <1>  -0.1500 
 21 O        5.2820     6.5960    -2.6070 O.3   1 <1>  -0.3630 
 22 C        5.2430     7.3380    -0.5210 C.ar  1 <1>   0.0830 
 23 C        5.4040     8.0170    -2.6240 C.3   1 <1>   0.4000 
 24 O        5.3920     8.4410    -1.2620 O.3   1 <1>  -0.3630 
 25 H       -2.0500     1.3310    -1.8280 H     1 <1>   0.0800 
 26 H       -0.9080     2.6870    -1.8620 H     1 <1>   0.0800 
 27 H       -1.4050     1.9900    -0.3140 H     1 <1>   0.0800 
 28 H        2.5520    -0.5140    -2.2130 H     1 <1>   0.0800 
 29 H        2.3510    -1.3070    -0.6620 H     1 <1>   0.0800 
 30 H        3.9430    -0.8730    -1.2460 H     1 <1>   0.0800 
 31 H        4.9980    -0.3040     0.2530 H     1 <1>   0.3700 
 32 H        4.5220     3.5550     2.2500 H     1 <1>   0.0800 
 33 H        6.7230     2.9670     2.0020 H     1 <1>   0.0800 
 34 H        6.6960     3.0880     0.2770 H     1 <1>   0.0800 
 35 H        4.9750     4.1280    -1.4660 H     1 <1>   0.1500 
 36 H        4.9280     5.8670     2.4670 H     1 <1>   0.1500 
 37 H        5.2060     8.1100     1.4680 H     1 <1>   0.1500 
 38 H        4.5630     8.4430    -3.1410 H     1 <1>   0.0800 
 39 H        6.3370     8.2940    -3.0810 H     1 <1>   0.0800 
@<TRIPOS>BOND
  1   1   2  1   
  2   1   3  1   
  3   2   4  2   
  4   2   5  1   
  5   3  25  1   
  6   3  26  1   
  7   3  27  1   
  8   4   6  1   
  9   5   7  1   
 10   5   8  1   
 11   6   9  2   
 12   6  10  1   
 13   7  10  2   
 14   7  11  1   
 15   8  28  1   
 16   8  29  1   
 17   8  30  1   
 18  10  12  1   
 19  11  13  am  
 20  11  31  1   
 21  12  14  1   
 22  12  15  1   
 23  12  32  1   
 24  13  15  1   
 25  13  16  2   
 26  14  17  ar  
 27  14  18  ar  
 28  15  33  1   
 29  15  34  1   
 30  17  19  ar  
 31  17  35  1   
 32  18  20  ar  
 33  18  36  1   
 34  19  21  1   
 35  19  22  ar  
 36  20  22  ar  
 37  20  37  1   
 38  21  23  1   
 39  22  24  1   
 40  23  24  1   
 41  23  38  1   
 42  23  39  1   
@<TRIPOS>SUBSTRUCTURE
  1 ****  10 GROUP 4 **** **** 0

# MOE 2024.06 (io_trps.svl 2023.06)
