@<TRIPOS>MOLECULE
1-Cyclohexyl-1-[3-(3,4-dimethoxy-phenyl)-[1,2,4]oxadiazol-5-ylmethyl]-3-propyl-u
59 61 1 0 0 
SMALL
USER_CHARGES


@<TRIPOS>ATOM
  1 O        0.4770     0.3370    -0.0550 O.2   1 <1>  -0.5700 
  2 C        0.5380     1.5170     0.2320 C.2   1 <1>   0.6900 
  3 N        1.6050     2.0040     0.9450 N.am  1 <1>  -0.6600 
  4 N       -0.4600     2.3440    -0.1590 N.am  1 <1>  -0.7300 
  5 C        1.8110     3.4090     1.4120 C.3   1 <1>   0.2200 
  6 C        2.7500     1.0870     1.2540 C.3   1 <1>   0.3200 
  7 C       -1.6350     1.9690    -0.9670 C.3   1 <1>   0.1400 
  8 C        0.7160     3.8600     2.3910 C.3   1 <1>  -0.1600 
  9 C        1.9900     4.3810     0.2350 C.3   1 <1>  -0.1600 
 10 C        4.0270     1.5270     0.5530 C.2   1 <1>   0.2980 
 11 C       -1.8490     3.0250    -2.0510 C.3   1 <1>  -0.1600 
 12 C        0.9790     5.2920     2.8800 C.3   1 <1>  -0.1600 
 13 C        2.2420     5.8090     0.7400 C.3   1 <1>  -0.1600 
 14 O        4.1070     1.3990    -0.7450 O.3   1 <1>  -0.0190 
 15 N        5.0480     2.0340     1.1150 N.2   1 <1>  -0.5650 
 16 C       -3.0640     2.6910    -2.9230 C.3   1 <1>  -0.2400 
 17 C        1.1350     6.2640     1.7010 C.3   1 <1>  -0.1600 
 18 N        5.2790     1.8710    -1.0370 N.2   1 <1>  -0.4100 
 19 C        5.8380     2.2490     0.0580 C.2   1 <1>   0.4620 
 20 C        7.1580     2.8470     0.1740 C.ar  1 <1>   0.0540 
 21 C        7.9680     3.0380    -0.9470 C.ar  1 <1>  -0.1500 
 22 C        7.6690     3.2580     1.4040 C.ar  1 <1>  -0.1500 
 23 C        9.2330     3.6130    -0.8670 C.ar  1 <1>   0.0820 
 24 C        8.9230     3.8260     1.5060 C.ar  1 <1>  -0.1500 
 25 O        9.9890     3.8030    -1.9890 O.3   1 <1>  -0.3630 
 26 C        9.7230     4.0080     0.3910 C.ar  1 <1>   0.0820 
 27 C        9.5030     3.5330    -3.2870 C.3   1 <1>   0.0400 
 28 O       10.9350     4.5720     0.6610 O.3   1 <1>  -0.3630 
 29 C       12.0100     4.5650    -0.2500 C.3   1 <1>   0.0400 
 30 H       -0.3790     3.3220     0.1040 H     1 <1>   0.3700 
 31 H        2.7340     3.4400     1.9690 H     1 <1>   0.0800 
 32 H        2.5370     0.0730     0.9650 H     1 <1>   0.0800 
 33 H        2.9160     1.0890     2.3150 H     1 <1>   0.0800 
 34 H       -2.4990     1.9090    -0.3280 H     1 <1>   0.0800 
 35 H       -1.4780     1.0030    -1.4190 H     1 <1>   0.0800 
 36 H        0.7000     3.1950     3.2360 H     1 <1>   0.0800 
 37 H       -0.2510     3.8360     1.9280 H     1 <1>   0.0800 
 38 H        1.1180     4.3920    -0.3910 H     1 <1>   0.0800 
 39 H        2.8270     4.0680    -0.3640 H     1 <1>   0.0800 
 40 H       -0.9720     3.0720    -2.6740 H     1 <1>   0.0800 
 41 H       -1.9990     3.9870    -1.5930 H     1 <1>   0.0800 
 42 H        1.8780     5.3080     3.4740 H     1 <1>   0.0800 
 43 H        0.1660     5.6140     3.5080 H     1 <1>   0.0800 
 44 H        2.2950     6.4830    -0.0970 H     1 <1>   0.0800 
 45 H        3.1920     5.8440     1.2490 H     1 <1>   0.0800 
 46 H       -2.9280     1.7400    -3.4080 H     1 <1>   0.0800 
 47 H       -3.1920     3.4440    -3.6810 H     1 <1>   0.0800 
 48 H       -3.9590     2.6520    -2.3260 H     1 <1>   0.0800 
 49 H        1.3670     7.2470     2.0750 H     1 <1>   0.0800 
 50 H        0.2020     6.3300     1.1670 H     1 <1>   0.0800 
 51 H        7.5730     2.7200    -1.8920 H     1 <1>   0.1500 
 52 H        7.0780     3.1320     2.2950 H     1 <1>   0.1500 
 53 H        9.2970     4.1350     2.4660 H     1 <1>   0.1500 
 54 H       10.2650     3.8120    -3.9930 H     1 <1>   0.0800 
 55 H        8.6170     4.1180    -3.4580 H     1 <1>   0.0800 
 56 H        9.2960     2.4810    -3.3720 H     1 <1>   0.0800 
 57 H       12.8900     4.9010     0.2680 H     1 <1>   0.0800 
 58 H       11.7840     5.2370    -1.0590 H     1 <1>   0.0800 
 59 H       12.1560     3.5620    -0.6120 H     1 <1>   0.0800 
@<TRIPOS>BOND
  1   1   2  2   
  2   2   3  am  
  3   2   4  am  
  4   3   5  1   
  5   3   6  1   
  6   4   7  1   
  7   4  30  1   
  8   5   8  1   
  9   5   9  1   
 10   5  31  1   
 11   6  10  1   
 12   6  32  1   
 13   6  33  1   
 14   7  11  1   
 15   7  34  1   
 16   7  35  1   
 17   8  12  1   
 18   8  36  1   
 19   8  37  1   
 20   9  13  1   
 21   9  38  1   
 22   9  39  1   
 23  10  14  1   
 24  10  15  2   
 25  11  16  1   
 26  11  40  1   
 27  11  41  1   
 28  12  17  1   
 29  12  42  1   
 30  12  43  1   
 31  13  17  1   
 32  13  44  1   
 33  13  45  1   
 34  14  18  1   
 35  15  19  1   
 36  16  46  1   
 37  16  47  1   
 38  16  48  1   
 39  17  49  1   
 40  17  50  1   
 41  18  19  2   
 42  19  20  1   
 43  20  21  ar  
 44  20  22  ar  
 45  21  23  ar  
 46  21  51  1   
 47  22  24  ar  
 48  22  52  1   
 49  23  25  1   
 50  23  26  ar  
 51  24  26  ar  
 52  24  53  1   
 53  25  27  1   
 54  26  28  1   
 55  27  54  1   
 56  27  55  1   
 57  27  56  1   
 58  28  29  1   
 59  29  57  1   
 60  29  58  1   
 61  29  59  1   
@<TRIPOS>SUBSTRUCTURE
  1 ****  15 GROUP 4 **** **** 0

# MOE 2024.06 (io_trps.svl 2023.06)
