@<TRIPOS>MOLECULE
4-(3-Methoxy-phenyl)-2,7-dimethyl-5-oxo-1,4,5,6,7,8-hexahydro-quinoline-3-carbox
55 58 1 0 0 
SMALL
USER_CHARGES


@<TRIPOS>ATOM
  1 O        0.3620    -0.1040    -1.2780 O.2   1 <1>  -0.5700 
  2 C        0.2830    -1.2040    -0.7850 C.2   1 <1>   0.4950 
  3 C        1.3990    -1.9820    -0.3630 C.2   1 <1>  -0.1240 
  4 C       -1.1040    -1.8130    -0.6660 C.3   1 <1>  -0.0990 
  5 C        1.2970    -3.2590     0.0830 C.2   1 <1>  -0.0380 
  6 C        2.7720    -1.3110    -0.4360 C.3   1 <1>   0.3400 
  7 C       -1.1760    -2.9010     0.4220 C.3   1 <1>  -0.0800 
  8 N        2.4050    -4.0110     0.3920 N.pl3 1 <1>  -0.6000 
  9 C       -0.0540    -3.9390     0.2410 C.3   1 <1>  -0.0220 
 10 C        3.9380    -2.2800    -0.2160 C.2   1 <1>  -0.1240 
 11 C        2.8600    -0.2230     0.6370 C.ar  1 <1>  -0.1440 
 12 C       -2.5550    -3.5750     0.4310 C.3   1 <1>  -0.2400 
 13 C        3.6910    -3.5580     0.1820 C.2   1 <1>  -0.0380 
 14 C        5.2100    -1.6660    -0.4420 C.2   1 <1>   0.6160 
 15 C        3.1050     1.0950     0.2810 C.ar  1 <1>  -0.1500 
 16 C        2.7080    -0.5460     1.9790 C.ar  1 <1>  -0.1500 
 17 C        4.7500    -4.6250     0.4160 C.3   1 <1>  -0.1020 
 18 O        5.4100    -1.0020    -1.4420 O.2   1 <1>  -0.5700 
 19 N        6.1950    -1.8150     0.4960 N.am  1 <1>  -0.5470 
 20 C        3.2020     2.0850     1.2560 C.ar  1 <1>   0.0820 
 21 C        2.8030     0.4330     2.9530 C.ar  1 <1>  -0.1500 
 22 C        7.5130    -1.4320     0.5790 C.ar  1 <1>   0.4270 
 23 O        3.4420     3.3920     0.9820 O.3   1 <1>  -0.3620 
 24 C        3.0500     1.7440     2.5890 C.ar  1 <1>  -0.1500 
 25 N        8.1210    -1.9500     1.6380 N.ar  1 <1>  -0.6200 
 26 C        8.1530    -0.5940    -0.3340 C.ar  1 <1>  -0.1500 
 27 C        3.5730     3.8420    -0.3480 C.3   1 <1>   0.0400 
 28 C        9.3940    -1.6270     1.7930 C.ar  1 <1>   0.1600 
 29 C        9.4790    -0.2690    -0.1600 C.ar  1 <1>  -0.1500 
 30 C       10.1110    -0.8070     0.9410 C.ar  1 <1>  -0.1500 
 31 H       -1.3670    -2.2270    -1.6220 H     1 <1>   0.0800 
 32 H       -1.8050    -1.0290    -0.4390 H     1 <1>   0.0800 
 33 H        2.8700    -0.8740    -1.4150 H     1 <1>   0.0800 
 34 H       -1.0290    -2.4210     1.3760 H     1 <1>   0.0800 
 35 H        2.2750    -4.9780     0.7110 H     1 <1>   0.4000 
 36 H       -0.0360    -4.5830     1.1030 H     1 <1>   0.0800 
 37 H       -0.2410    -4.5460    -0.6280 H     1 <1>   0.0800 
 38 H       -2.7470    -4.0670    -0.5060 H     1 <1>   0.0800 
 39 H       -3.3260    -2.8430     0.5970 H     1 <1>   0.0800 
 40 H       -2.6100    -4.3050     1.2200 H     1 <1>   0.0800 
 41 H        3.2190     1.3350    -0.7590 H     1 <1>   0.1500 
 42 H        2.5170    -1.5650     2.2690 H     1 <1>   0.1500 
 43 H        4.4650    -5.5360    -0.0780 H     1 <1>   0.0800 
 44 H        4.8510    -4.8200     1.4690 H     1 <1>   0.0800 
 45 H        5.7070    -4.3370     0.0230 H     1 <1>   0.0800 
 46 H        5.9120    -2.3210     1.3290 H     1 <1>   0.3700 
 47 H        2.6850     0.1750     3.9900 H     1 <1>   0.1500 
 48 H        3.1270     2.5120     3.3360 H     1 <1>   0.1500 
 49 H        7.6190    -0.1940    -1.1730 H     1 <1>   0.1500 
 50 H        3.7420     4.9030    -0.3270 H     1 <1>   0.0800 
 51 H        2.6640     3.6250    -0.8800 H     1 <1>   0.0800 
 52 H        4.4130     3.3470    -0.8020 H     1 <1>   0.0800 
 53 H        9.8980    -2.0410     2.6500 H     1 <1>   0.1500 
 54 H        9.9960     0.3760    -0.8500 H     1 <1>   0.1500 
 55 H       11.1460    -0.5920     1.1360 H     1 <1>   0.1500 
@<TRIPOS>BOND
  1   1   2  2   
  2   2   3  1   
  3   2   4  1   
  4   3   5  2   
  5   3   6  1   
  6   4   7  1   
  7   4  31  1   
  8   4  32  1   
  9   5   8  1   
 10   5   9  1   
 11   6  10  1   
 12   6  11  1   
 13   6  33  1   
 14   7   9  1   
 15   7  12  1   
 16   7  34  1   
 17   8  13  1   
 18   8  35  1   
 19   9  36  1   
 20   9  37  1   
 21  10  13  2   
 22  10  14  1   
 23  11  15  ar  
 24  11  16  ar  
 25  12  38  1   
 26  12  39  1   
 27  12  40  1   
 28  13  17  1   
 29  14  18  2   
 30  14  19  am  
 31  15  20  ar  
 32  15  41  1   
 33  16  21  ar  
 34  16  42  1   
 35  17  43  1   
 36  17  44  1   
 37  17  45  1   
 38  19  22  1   
 39  19  46  1   
 40  20  23  1   
 41  20  24  ar  
 42  21  24  ar  
 43  21  47  1   
 44  22  25  ar  
 45  22  26  ar  
 46  23  27  1   
 47  24  48  1   
 48  25  28  ar  
 49  26  29  ar  
 50  26  49  1   
 51  27  50  1   
 52  27  51  1   
 53  27  52  1   
 54  28  30  ar  
 55  28  53  1   
 56  29  30  ar  
 57  29  54  1   
 58  30  55  1   
@<TRIPOS>SUBSTRUCTURE
  1 ****   6 GROUP 4 **** **** 0

# MOE 2024.06 (io_trps.svl 2023.06)
