@<TRIPOS>MOLECULE
1-(4-Ethoxy-phenyl)-5-oxo-pyrrolidine-3-carboxylic acid (pyridin-4-ylmethyl)-ami
46 48 1 0 0 
SMALL
USER_CHARGES


@<TRIPOS>ATOM
  1 O        0.8770     0.1330    -1.4920 O.2   1 <1>  -0.5700 
  2 C        1.9010    -0.0980    -0.8980 C.2   1 <1>   0.5690 
  3 N        2.2760    -1.2860    -0.3380 N.am  1 <1>  -0.4770 
  4 C        2.9510     0.9590    -0.7010 C.3   1 <1>  -0.0990 
  5 C        1.5110    -2.4620    -0.2130 C.ar  1 <1>   0.1170 
  6 C        3.5890    -1.1510     0.3270 C.3   1 <1>   0.1400 
  7 C        4.1720     0.1490    -0.2430 C.3   1 <1>  -0.0190 
  8 C        2.0910    -3.7160    -0.3840 C.ar  1 <1>  -0.1500 
  9 C        0.1560    -2.4010     0.0940 C.ar  1 <1>  -0.1500 
 10 C        5.0530     0.8950     0.7440 C.2   1 <1>   0.5690 
 11 C        1.3470    -4.8740    -0.2410 C.ar  1 <1>  -0.1500 
 12 C       -0.5930    -3.5550     0.2380 C.ar  1 <1>  -0.1500 
 13 O        4.7080     0.9920     1.8950 O.2   1 <1>  -0.5700 
 14 N        6.2090     1.4450     0.3040 N.am  1 <1>  -0.7300 
 15 C       -0.0060    -4.7980     0.0760 C.ar  1 <1>   0.0820 
 16 C        7.1610     2.1660     1.1650 C.3   1 <1>   0.2840 
 17 O       -0.8110    -5.8810     0.2380 O.3   1 <1>  -0.3630 
 18 C        8.5350     2.0530     0.5350 C.ar  1 <1>  -0.1430 
 19 C       -0.3180    -7.1860     0.0480 C.3   1 <1>   0.1200 
 20 C        9.0560     3.0440    -0.2730 C.ar  1 <1>  -0.1500 
 21 C        9.3340     0.9440     0.7340 C.ar  1 <1>  -0.1500 
 22 C       -1.4670    -8.1620     0.2820 C.3   1 <1>  -0.2400 
 23 C       10.3140     2.8820    -0.8290 C.ar  1 <1>   0.1600 
 24 C       10.5790     0.8810     0.1310 C.ar  1 <1>   0.1600 
 25 N       11.0860     1.8230    -0.6470 N.ar  1 <1>  -0.6200 
 26 H        2.6170     1.6340     0.0660 H     1 <1>   0.0800 
 27 H        3.1370     1.4950    -1.6120 H     1 <1>   0.0800 
 28 H        4.2290    -1.9880     0.1140 H     1 <1>   0.0800 
 29 H        3.4290    -1.0810     1.3900 H     1 <1>   0.0800 
 30 H        4.7540    -0.1120    -1.1080 H     1 <1>   0.0800 
 31 H        3.1300    -3.7910    -0.6400 H     1 <1>   0.1500 
 32 H       -0.3160    -1.4430     0.2200 H     1 <1>   0.1500 
 33 H        1.8350    -5.8200    -0.3800 H     1 <1>   0.1500 
 34 H       -1.6400    -3.4960     0.4760 H     1 <1>   0.1500 
 35 H        6.5090     1.3580    -0.6690 H     1 <1>   0.3700 
 36 H        7.1640     1.7370     2.1540 H     1 <1>   0.0800 
 37 H        6.8640     3.1980     1.2420 H     1 <1>   0.0800 
 38 H        0.4750    -7.3570     0.7550 H     1 <1>   0.0800 
 39 H        0.0520    -7.2680    -0.9590 H     1 <1>   0.0800 
 40 H        8.4970     3.9400    -0.4770 H     1 <1>   0.1500 
 41 H        8.9980     0.1300     1.3500 H     1 <1>   0.1500 
 42 H       -1.8400    -8.0600     1.2850 H     1 <1>   0.0800 
 43 H       -1.1220    -9.1710     0.1430 H     1 <1>   0.0800 
 44 H       -2.2610    -7.9710    -0.4180 H     1 <1>   0.0800 
 45 H       10.7070     3.6650    -1.4560 H     1 <1>   0.1500 
 46 H       11.1900     0.0100     0.2970 H     1 <1>   0.1500 
@<TRIPOS>BOND
  1   1   2  2   
  2   2   3  am  
  3   2   4  1   
  4   3   5  1   
  5   3   6  1   
  6   4   7  1   
  7   4  26  1   
  8   4  27  1   
  9   5   8  ar  
 10   5   9  ar  
 11   6   7  1   
 12   6  28  1   
 13   6  29  1   
 14   7  10  1   
 15   7  30  1   
 16   8  11  ar  
 17   8  31  1   
 18   9  12  ar  
 19   9  32  1   
 20  10  13  2   
 21  10  14  am  
 22  11  15  ar  
 23  11  33  1   
 24  12  15  ar  
 25  12  34  1   
 26  14  16  1   
 27  14  35  1   
 28  15  17  1   
 29  16  18  1   
 30  16  36  1   
 31  16  37  1   
 32  17  19  1   
 33  18  20  ar  
 34  18  21  ar  
 35  19  22  1   
 36  19  38  1   
 37  19  39  1   
 38  20  23  ar  
 39  20  40  1   
 40  21  24  ar  
 41  21  41  1   
 42  22  42  1   
 43  22  43  1   
 44  22  44  1   
 45  23  25  ar  
 46  23  45  1   
 47  24  25  ar  
 48  24  46  1   
@<TRIPOS>SUBSTRUCTURE
  1 ****   6 GROUP 4 **** **** 0

# MOE 2024.06 (io_trps.svl 2023.06)
