@<TRIPOS>MOLECULE
N-Isopropyl-2,3-dimethoxy-N-(3-p-tolyl-[1,2,4]oxadiazol-5-ylmethyl)-benzamide
54 56 1 0 0 
SMALL
USER_CHARGES


@<TRIPOS>ATOM
  1 O        0.4750     0.8010     1.5630 O.2   1 <1>  -0.5700 
  2 C        0.4150     1.6530     0.6960 C.2   1 <1>   0.5440 
  3 N        1.4450     1.7500    -0.2200 N.am  1 <1>  -0.6600 
  4 C       -0.7180     2.5520     0.6940 C.ar  1 <1>   0.0860 
  5 C        1.4160     2.7580    -1.3250 C.3   1 <1>   0.2200 
  6 C        2.6460     0.8510    -0.0790 C.3   1 <1>   0.3200 
  7 C       -1.7760     2.4010    -0.2050 C.ar  1 <1>   0.0820 
  8 C       -0.7850     3.5950     1.6160 C.ar  1 <1>  -0.1500 
  9 C        2.0120     2.2170    -2.6260 C.3   1 <1>  -0.2400 
 10 C        2.1190     4.0430    -0.8880 C.3   1 <1>  -0.2400 
 11 C        3.8880     1.5920     0.3900 C.2   1 <1>   0.2980 
 12 O       -1.7210     1.4000    -1.1130 O.3   1 <1>  -0.3630 
 13 C       -2.8650     3.2770    -0.1920 C.ar  1 <1>   0.0820 
 14 C       -1.8570     4.4660     1.6390 C.ar  1 <1>  -0.1500 
 15 O        3.8530     2.2060     1.5430 O.3   1 <1>  -0.0190 
 16 N        4.9880     1.6810    -0.2410 N.2   1 <1>  -0.5650 
 17 C       -2.4020     0.2160    -0.7710 C.3   1 <1>   0.0400 
 18 O       -3.8610     3.0770    -1.1030 O.3   1 <1>  -0.3630 
 19 C       -2.8960     4.3110     0.7380 C.ar  1 <1>  -0.1500 
 20 N        5.0290     2.7390     1.6540 N.2   1 <1>  -0.4100 
 21 C        5.7040     2.4330     0.6030 C.2   1 <1>   0.4620 
 22 C       -4.9630     3.9520    -1.2010 C.3   1 <1>   0.0400 
 23 C        7.0740     2.8350     0.3270 C.ar  1 <1>   0.0540 
 24 C        7.7260     2.4660    -0.8520 C.ar  1 <1>  -0.1500 
 25 C        7.7970     3.6130     1.2330 C.ar  1 <1>  -0.1500 
 26 C        9.0280     2.8520    -1.1120 C.ar  1 <1>  -0.1500 
 27 C        9.1000     4.0010     0.9780 C.ar  1 <1>  -0.1500 
 28 C        9.7260     3.6220    -0.1970 C.ar  1 <1>  -0.1430 
 29 C       11.1550     4.0480    -0.4800 C.3   1 <1>  -0.0970 
 30 H        0.3920     3.0060    -1.5420 H     1 <1>   0.0800 
 31 H        2.8530     0.3710    -1.0160 H     1 <1>   0.0800 
 32 H        2.4530     0.0630     0.6260 H     1 <1>   0.0800 
 33 H        0.0200     3.7120     2.3220 H     1 <1>   0.1500 
 34 H        3.0740     2.0700    -2.5420 H     1 <1>   0.0800 
 35 H        1.8400     2.9240    -3.4170 H     1 <1>   0.0800 
 36 H        1.5320     1.2930    -2.8950 H     1 <1>   0.0800 
 37 H        3.1780     3.8980    -0.7920 H     1 <1>   0.0800 
 38 H        1.9560     4.8100    -1.6240 H     1 <1>   0.0800 
 39 H        1.7210     4.3870     0.0490 H     1 <1>   0.0800 
 40 H       -1.8860     5.2650     2.3600 H     1 <1>   0.1500 
 41 H       -2.2720    -0.4900    -1.5710 H     1 <1>   0.0800 
 42 H       -3.4470     0.4390    -0.6420 H     1 <1>   0.0800 
 43 H       -1.9840    -0.1760     0.1400 H     1 <1>   0.0800 
 44 H       -3.7160     5.0030     0.7810 H     1 <1>   0.1500 
 45 H       -5.5910     3.6050    -2.0020 H     1 <1>   0.0800 
 46 H       -4.6050     4.9420    -1.4220 H     1 <1>   0.0800 
 47 H       -5.5080     3.9330    -0.2750 H     1 <1>   0.0800 
 48 H        7.2050     1.8680    -1.5780 H     1 <1>   0.1500 
 49 H        7.3320     3.9190     2.1530 H     1 <1>   0.1500 
 50 H        9.4970     2.5500    -2.0320 H     1 <1>   0.1500 
 51 H        9.6250     4.6020     1.6990 H     1 <1>   0.1500 
 52 H       11.6530     3.3130    -1.0880 H     1 <1>   0.0800 
 53 H       11.7040     4.1560     0.4380 H     1 <1>   0.0800 
 54 H       11.1570     4.9890    -1.0000 H     1 <1>   0.0800 
@<TRIPOS>BOND
  1   1   2  2   
  2   2   3  am  
  3   2   4  1   
  4   3   5  1   
  5   3   6  1   
  6   4   7  ar  
  7   4   8  ar  
  8   5   9  1   
  9   5  10  1   
 10   5  30  1   
 11   6  11  1   
 12   6  31  1   
 13   6  32  1   
 14   7  12  1   
 15   7  13  ar  
 16   8  14  ar  
 17   8  33  1   
 18   9  34  1   
 19   9  35  1   
 20   9  36  1   
 21  10  37  1   
 22  10  38  1   
 23  10  39  1   
 24  11  15  1   
 25  11  16  2   
 26  12  17  1   
 27  13  18  1   
 28  13  19  ar  
 29  14  19  ar  
 30  14  40  1   
 31  15  20  1   
 32  16  21  1   
 33  17  41  1   
 34  17  42  1   
 35  17  43  1   
 36  18  22  1   
 37  19  44  1   
 38  20  21  2   
 39  21  23  1   
 40  22  45  1   
 41  22  46  1   
 42  22  47  1   
 43  23  24  ar  
 44  23  25  ar  
 45  24  26  ar  
 46  24  48  1   
 47  25  27  ar  
 48  25  49  1   
 49  26  28  ar  
 50  26  50  1   
 51  27  28  ar  
 52  27  51  1   
 53  28  29  1   
 54  29  52  1   
 55  29  53  1   
 56  29  54  1   
@<TRIPOS>SUBSTRUCTURE
  1 ****   3 GROUP 4 **** **** 0

# MOE 2024.06 (io_trps.svl 2023.06)
