@<TRIPOS>MOLECULE
2-(5-Propyl-[1,3,4]oxadiazol-2-ylsulfanyl)-N-p-tolyl-acetamide
37 38 1 0 0 
SMALL
USER_CHARGES


@<TRIPOS>ATOM
  1 S        0.2900     1.7760    -0.2040 S.3   1 <1>  -0.2860 
  2 C        1.8340     0.9560     0.1690 C.2   1 <1>   0.5340 
  3 C       -0.4230     2.0830     1.4860 C.3   1 <1>   0.1310 
  4 O        2.6040     0.5980    -0.8000 O.3   1 <1>  -0.2800 
  5 N        2.2780     0.6710     1.3300 N.2   1 <1>  -0.3380 
  6 C       -1.7770     2.7750     1.4190 C.2   1 <1>   0.5690 
  7 C        3.5990     0.0510    -0.1750 C.2   1 <1>   0.2980 
  8 N        3.4490     0.0710     1.1010 N.2   1 <1>  -0.3380 
  9 O       -2.2260     3.2110     2.4500 O.2   1 <1>  -0.5700 
 10 N       -2.4150     2.8720     0.2100 N.am  1 <1>  -0.5470 
 11 C        4.7550    -0.5140    -0.9850 C.3   1 <1>   0.0200 
 12 C       -3.6550     3.4180    -0.1570 C.ar  1 <1>   0.1170 
 13 C        5.8630    -1.1310    -0.1160 C.3   1 <1>  -0.1600 
 14 C       -3.8900     3.6820    -1.5010 C.ar  1 <1>  -0.1500 
 15 C       -4.6690     3.6980     0.7530 C.ar  1 <1>  -0.1500 
 16 C        7.0080    -1.6880    -0.9700 C.3   1 <1>  -0.2400 
 17 C       -5.0960     4.2110    -1.9250 C.ar  1 <1>  -0.1500 
 18 C       -5.8760     4.2270     0.3320 C.ar  1 <1>  -0.1500 
 19 C       -6.0980     4.4860    -1.0100 C.ar  1 <1>  -0.1430 
 20 C       -7.4220     5.0690    -1.4700 C.3   1 <1>  -0.0970 
 21 H        0.2790     2.6940     2.0220 H     1 <1>   0.0800 
 22 H       -0.5190     1.1300     1.9720 H     1 <1>   0.0800 
 23 H       -1.8670     2.5170    -0.5740 H     1 <1>   0.3700 
 24 H        5.1690     0.2790    -1.5810 H     1 <1>   0.0800 
 25 H        4.3660    -1.2630    -1.6510 H     1 <1>   0.0800 
 26 H        5.4480    -1.9240     0.4830 H     1 <1>   0.0800 
 27 H        6.2520    -0.3810     0.5540 H     1 <1>   0.0800 
 28 H       -3.1240     3.4770    -2.2260 H     1 <1>   0.1500 
 29 H       -4.5270     3.5010     1.7990 H     1 <1>   0.1500 
 30 H        6.6480    -2.4580    -1.6290 H     1 <1>   0.0800 
 31 H        7.7660    -2.1120    -0.3340 H     1 <1>   0.0800 
 32 H        7.4560    -0.9070    -1.5580 H     1 <1>   0.0800 
 33 H       -5.2520     4.4090    -2.9710 H     1 <1>   0.1500 
 34 H       -6.6420     4.4370     1.0570 H     1 <1>   0.1500 
 35 H       -7.3740     6.1420    -1.4440 H     1 <1>   0.0800 
 36 H       -8.2200     4.7400    -0.8280 H     1 <1>   0.0800 
 37 H       -7.6440     4.7540    -2.4740 H     1 <1>   0.0800 
@<TRIPOS>BOND
  1   1   2  1   
  2   1   3  1   
  3   2   4  1   
  4   2   5  2   
  5   3   6  1   
  6   3  21  1   
  7   3  22  1   
  8   4   7  1   
  9   5   8  1   
 10   6   9  2   
 11   6  10  am  
 12   7   8  2   
 13   7  11  1   
 14  10  12  1   
 15  10  23  1   
 16  11  13  1   
 17  11  24  1   
 18  11  25  1   
 19  12  14  ar  
 20  12  15  ar  
 21  13  16  1   
 22  13  26  1   
 23  13  27  1   
 24  14  17  ar  
 25  14  28  1   
 26  15  18  ar  
 27  15  29  1   
 28  16  30  1   
 29  16  31  1   
 30  16  32  1   
 31  17  19  ar  
 32  17  33  1   
 33  18  19  ar  
 34  18  34  1   
 35  19  20  1   
 36  20  35  1   
 37  20  36  1   
 38  20  37  1   
@<TRIPOS>SUBSTRUCTURE
  1 ****   1 GROUP 4 **** **** 0

# MOE 2024.06 (io_trps.svl 2023.06)
