@<TRIPOS>MOLECULE
5-Ethyl-2-(5-methoxy-1H-indol-3-yl)-7-methyl-1,3-diaza-tricyclo[3.3.1.1*3,7*]dec
51 55 1 0 0 
SMALL
USER_CHARGES


@<TRIPOS>ATOM
  1 O        0.8140     0.2900    -0.8220 O.2   1 <1>  -0.5700 
  2 C        1.4580    -0.6770    -0.5470 C.2   1 <1>   0.4480 
  3 C        1.6920    -1.8430    -1.5120 C.3   1 <1>   0.0610 
  4 C        2.0950    -0.8710     0.8300 C.3   1 <1>   0.0610 
  5 C        1.1100    -3.0960    -0.8480 C.3   1 <1>   0.3430 
  6 C        3.2080    -2.0610    -1.5900 C.3   1 <1>   0.1100 
  7 C        1.1160    -1.6310    -2.9360 C.3   1 <1>  -0.1600 
  8 C        1.4510    -2.1350     1.4130 C.3   1 <1>   0.3430 
  9 C        3.5930    -1.1610     0.6220 C.3   1 <1>   0.1100 
 10 C        1.9020     0.3320     1.7760 C.3   1 <1>  -0.2400 
 11 N        1.7200    -3.2970     0.5090 N.4   1 <1>  -0.9590 
 12 N        3.7440    -2.3510    -0.2380 N.3   1 <1>  -0.8100 
 13 C       -0.4190    -1.6540    -3.0270 C.3   1 <1>  -0.2400 
 14 C        3.1730    -3.5420     0.4120 C.3   1 <1>   0.8740 
 15 C        3.4140    -4.8580    -0.3170 C.2   1 <1>  -0.1810 
 16 C        2.8000    -6.0660     0.0970 C.ar  1 <1>   0.0000 
 17 C        4.1910    -5.1550    -1.3930 C.2   1 <1>  -0.3020 
 18 C        3.2010    -7.0430    -0.8060 C.ar  1 <1>  -0.1520 
 19 C        1.9590    -6.4280     1.1580 C.ar  1 <1>  -0.1500 
 20 N        4.0670    -6.4770    -1.7060 N.pl3 1 <1>   0.0330 
 21 C        2.7380    -8.3570    -0.7060 C.ar  1 <1>  -0.1500 
 22 C        1.4960    -7.7180     1.2610 C.ar  1 <1>   0.0820 
 23 C        1.8840    -8.6880     0.3190 C.ar  1 <1>  -0.1500 
 24 O        0.6650    -7.9790     2.3070 O.3   1 <1>  -0.3620 
 25 C        0.2790    -9.3030     2.6090 C.3   1 <1>   0.0400 
 26 H        1.3080    -3.9540    -1.4700 H     1 <1>   0.0800 
 27 H        0.0420    -2.9870    -0.7550 H     1 <1>   0.0800 
 28 H        3.4280    -2.8700    -2.2640 H     1 <1>   0.0800 
 29 H        3.6870    -1.1800    -1.9870 H     1 <1>   0.0800 
 30 H        1.4970    -2.3910    -3.5970 H     1 <1>   0.0800 
 31 H        1.4650    -0.6820    -3.3130 H     1 <1>   0.0800 
 32 H        0.3880    -1.9810     1.5120 H     1 <1>   0.0800 
 33 H        1.8590    -2.3260     2.3920 H     1 <1>   0.0800 
 34 H        4.0810    -1.3310     1.5680 H     1 <1>   0.0800 
 35 H        4.0730    -0.3140     0.1570 H     1 <1>   0.0800 
 36 H        0.8540     0.5310     1.9260 H     1 <1>   0.0800 
 37 H        2.3450     1.2150     1.3480 H     1 <1>   0.0800 
 38 H        2.3580     0.1530     2.7340 H     1 <1>   0.0800 
 39 H        1.3390    -4.1660     0.8950 H     1 <1>   0.4500 
 40 H       -0.8200    -2.6210    -2.7810 H     1 <1>   0.0800 
 41 H       -0.7200    -1.4230    -4.0350 H     1 <1>   0.0800 
 42 H       -0.8600    -0.9150    -2.3810 H     1 <1>   0.0800 
 43 H        3.5970    -3.6330     1.4010 H     1 <1>   0.0800 
 44 H        4.8380    -4.5070    -1.9610 H     1 <1>   0.1500 
 45 H        1.6740    -5.7260     1.9150 H     1 <1>   0.1500 
 46 H        4.5500    -6.9810    -2.4590 H     1 <1>   0.2700 
 47 H        3.0510    -9.0960    -1.4240 H     1 <1>   0.1500 
 48 H        1.5240    -9.6970     0.3900 H     1 <1>   0.1500 
 49 H       -0.3110    -9.2830     3.5070 H     1 <1>   0.0800 
 50 H        1.1620    -9.8980     2.7660 H     1 <1>   0.0800 
 51 H       -0.3090    -9.6900     1.7960 H     1 <1>   0.0800 
@<TRIPOS>BOND
  1   1   2  2   
  2   2   3  1   
  3   2   4  1   
  4   3   5  1   
  5   3   6  1   
  6   3   7  1   
  7   4   8  1   
  8   4   9  1   
  9   4  10  1   
 10   5  11  1   
 11   5  26  1   
 12   5  27  1   
 13   6  12  1   
 14   6  28  1   
 15   6  29  1   
 16   7  13  1   
 17   7  30  1   
 18   7  31  1   
 19   8  11  1   
 20   8  32  1   
 21   8  33  1   
 22   9  12  1   
 23   9  34  1   
 24   9  35  1   
 25  10  36  1   
 26  10  37  1   
 27  10  38  1   
 28  11  14  1   
 29  11  39  1   
 30  12  14  1   
 31  13  40  1   
 32  13  41  1   
 33  13  42  1   
 34  14  15  1   
 35  14  43  1   
 36  15  16  1   
 37  15  17  2   
 38  16  18  ar  
 39  16  19  ar  
 40  17  20  1   
 41  17  44  1   
 42  18  20  1   
 43  18  21  ar  
 44  19  22  ar  
 45  19  45  1   
 46  20  46  1   
 47  21  23  ar  
 48  21  47  1   
 49  22  23  ar  
 50  22  24  1   
 51  23  48  1   
 52  24  25  1   
 53  25  49  1   
 54  25  50  1   
 55  25  51  1   
@<TRIPOS>SUBSTRUCTURE
  1 ****  11 GROUP 4 **** **** 0

# MOE 2024.06 (io_trps.svl 2023.06)
