@<TRIPOS>MOLECULE
1-Allyl-8-bromo-3,7-dimethyl-3,7-dihydro-purine-2,6-dione
28 29 1 0 0 
SMALL
USER_CHARGES


@<TRIPOS>ATOM
  1 BR      -0.4230    -0.0160    -1.2850 Br    1 <1>  -0.0580 
  2 C       -2.2510     0.0080    -0.6900 C.2   1 <1>   0.2440 
  3 N       -2.8820    -1.0790    -0.3790 N.2   1 <1>  -0.5650 
  4 N       -2.9360     1.1660    -0.5780 N.pl3 1 <1>   0.0480 
  5 C       -4.0830    -0.5940    -0.0340 C.2   1 <1>   0.2900 
  6 C       -4.1560     0.7550    -0.1390 C.2   1 <1>  -0.2370 
  7 C       -2.5130     2.5550    -0.8510 C.3   1 <1>   0.0160 
  8 N       -5.1800    -1.3310     0.3960 N.am  1 <1>  -0.4230 
  9 C       -5.3450     1.4530     0.1820 C.2   1 <1>   0.7150 
 10 C       -6.3490    -0.6690     0.7260 C.2   1 <1>   0.6900 
 11 C       -5.0420    -2.8100     0.4940 C.3   1 <1>   0.0600 
 12 O       -5.4070     2.6680     0.1010 O.2   1 <1>  -0.5700 
 13 N       -6.4310     0.7110     0.5980 N.am  1 <1>  -0.4200 
 14 O       -7.3070    -1.2980     1.1450 O.2   1 <1>  -0.5700 
 15 C       -7.7180     1.3970     0.8590 C.3   1 <1>   0.2780 
 16 C       -8.4610     1.5840    -0.4520 C.2   1 <1>  -0.2880 
 17 C       -9.6010     0.9690    -0.7840 C.2   1 <1>  -0.3000 
 18 H       -1.4950     2.5760    -1.1940 H     1 <1>   0.0800 
 19 H       -2.5990     3.1350     0.0500 H     1 <1>   0.0800 
 20 H       -3.1520     2.9780    -1.6050 H     1 <1>   0.0800 
 21 H       -4.7160    -3.2010    -0.4540 H     1 <1>   0.0800 
 22 H       -5.9770    -3.2710     0.7570 H     1 <1>   0.0800 
 23 H       -4.3070    -3.0500     1.2420 H     1 <1>   0.0800 
 24 H       -7.5400     2.3550     1.3170 H     1 <1>   0.0800 
 25 H       -8.3170     0.8210     1.5430 H     1 <1>   0.0800 
 26 H       -7.9640     2.2790    -1.1080 H     1 <1>   0.1500 
 27 H      -10.1130     1.1160    -1.7200 H     1 <1>   0.1500 
 28 H      -10.1150     0.2640    -0.1520 H     1 <1>   0.1500 
@<TRIPOS>BOND
  1   1   2  1   
  2   2   3  2   
  3   2   4  1   
  4   3   5  1   
  5   4   6  1   
  6   4   7  1   
  7   5   6  2   
  8   5   8  1   
  9   6   9  1   
 10   7  18  1   
 11   7  19  1   
 12   7  20  1   
 13   8  10  am  
 14   8  11  1   
 15   9  12  2   
 16   9  13  am  
 17  10  13  am  
 18  10  14  2   
 19  11  21  1   
 20  11  22  1   
 21  11  23  1   
 22  13  15  1   
 23  15  16  1   
 24  15  24  1   
 25  15  25  1   
 26  16  17  2   
 27  16  26  1   
 28  17  27  1   
 29  17  28  1   
@<TRIPOS>SUBSTRUCTURE
  1 ****   6 GROUP 4 **** **** 0

# MOE 2024.06 (io_trps.svl 2023.06)
