@<TRIPOS>MOLECULE
2-(4-Hydroxy-3-methoxy-phenyl)-5,7-dipropyl-1,3-diaza-tricyclo[3.3.1.1*3,7*]deca
59 62 1 0 0 
SMALL
USER_CHARGES


@<TRIPOS>ATOM
  1 O       -0.0870     0.2090     0.0430 O.3   1 <1>  -0.3630 
  2 C       -1.2360    -0.0190     0.7440 C.ar  1 <1>   0.0830 
  3 C        1.1790    -0.2430     0.4710 C.3   1 <1>   0.0400 
  4 C       -1.3580    -0.6080     2.0130 C.ar  1 <1>   0.0830 
  5 C       -2.3810     0.3950     0.0870 C.ar  1 <1>  -0.1500 
  6 O       -0.3060    -1.0390     2.7390 O.3   1 <1>  -0.5330 
  7 C       -2.6130    -0.7650     2.5740 C.ar  1 <1>  -0.1500 
  8 C       -3.6480     0.2630     0.6510 C.ar  1 <1>  -0.1440 
  9 C       -3.7440    -0.3380     1.9010 C.ar  1 <1>  -0.1500 
 10 C       -4.9160     0.7300    -0.0810 C.3   1 <1>   0.8360 
 11 N       -4.6430     1.8360    -1.0250 N.4   1 <1>  -0.9590 
 12 N       -5.9570     1.2250     0.8260 N.3   1 <1>  -0.8100 
 13 C       -5.8630     2.1410    -1.8320 C.3   1 <1>   0.3430 
 14 C       -4.1610     3.0600    -0.3060 C.3   1 <1>   0.3430 
 15 C       -7.2230     1.4730     0.1120 C.3   1 <1>   0.1100 
 16 C       -5.5450     2.4190     1.5990 C.3   1 <1>   0.1100 
 17 C       -7.0180     2.5990    -0.9220 C.3   1 <1>   0.0000 
 18 C       -5.2520     3.5870     0.6380 C.3   1 <1>   0.0000 
 19 C       -6.5260     3.8840    -0.1980 C.3   1 <1>   0.2000 
 20 C       -8.2620     2.8090    -1.8290 C.3   1 <1>  -0.1600 
 21 C       -4.7380     4.8040     1.4550 C.3   1 <1>  -0.1600 
 22 O       -7.5120     4.4030     0.6290 O.3   1 <1>  -0.6800 
 23 C       -9.6270     2.9470    -1.1280 C.3   1 <1>  -0.1600 
 24 C       -4.6640     6.1710     0.7440 C.3   1 <1>  -0.1600 
 25 C      -10.7520     3.0700    -2.1600 C.3   1 <1>  -0.2400 
 26 C       -3.6910     6.2470    -0.4380 C.3   1 <1>  -0.2400 
 27 H        1.1430    -1.3090     0.6060 H     1 <1>   0.0800 
 28 H        1.4330     0.2520     1.3920 H     1 <1>   0.0800 
 29 H        1.8990     0.0060    -0.2870 H     1 <1>   0.0800 
 30 H       -2.2340     0.8210    -0.8870 H     1 <1>   0.1500 
 31 H       -0.5610    -1.4380     3.5910 H     1 <1>   0.4500 
 32 H       -2.7210    -1.2220     3.5420 H     1 <1>   0.1500 
 33 H       -4.7060    -0.4790     2.3670 H     1 <1>   0.1500 
 34 H       -5.3100    -0.1160    -0.6220 H     1 <1>   0.0800 
 35 H       -3.8980     1.4940    -1.6350 H     1 <1>   0.4500 
 36 H       -5.6440     2.9160    -2.5480 H     1 <1>   0.0800 
 37 H       -6.1670     1.2600    -2.3740 H     1 <1>   0.0800 
 38 H       -3.8980     3.8160    -1.0230 H     1 <1>   0.0800 
 39 H       -3.2800     2.8260     0.2700 H     1 <1>   0.0800 
 40 H       -7.9840     1.7460     0.8240 H     1 <1>   0.0800 
 41 H       -7.5490     0.5680    -0.3750 H     1 <1>   0.0800 
 42 H       -6.3270     2.6860     2.2900 H     1 <1>   0.0800 
 43 H       -4.6700     2.1950     2.1870 H     1 <1>   0.0800 
 44 H       -6.3130     4.6450    -0.9290 H     1 <1>   0.0800 
 45 H       -8.3420     1.9720    -2.5030 H     1 <1>   0.0800 
 46 H       -8.1060     3.6860    -2.4350 H     1 <1>   0.0800 
 47 H       -3.7690     4.5770     1.8660 H     1 <1>   0.0800 
 48 H       -5.3960     4.9410     2.2970 H     1 <1>   0.0800 
 49 H       -7.7760     3.7620     1.3150 H     1 <1>   0.4000 
 50 H       -9.6500     3.8250    -0.5080 H     1 <1>   0.0800 
 51 H       -9.8290     2.0910    -0.5090 H     1 <1>   0.0800 
 52 H       -4.3460     6.8970     1.4750 H     1 <1>   0.0800 
 53 H       -5.6450     6.4780     0.4220 H     1 <1>   0.0800 
 54 H      -10.6040     3.9360    -2.7810 H     1 <1>   0.0800 
 55 H      -11.6990     3.1740    -1.6580 H     1 <1>   0.0800 
 56 H      -10.7960     2.1960    -2.7860 H     1 <1>   0.0800 
 57 H       -2.7360     5.8250    -0.1780 H     1 <1>   0.0800 
 58 H       -3.5360     7.2800    -0.7010 H     1 <1>   0.0800 
 59 H       -4.0890     5.7550    -1.3050 H     1 <1>   0.0800 
@<TRIPOS>BOND
  1   1   2  1   
  2   1   3  1   
  3   2   4  ar  
  4   2   5  ar  
  5   3  27  1   
  6   3  28  1   
  7   3  29  1   
  8   4   6  1   
  9   4   7  ar  
 10   5   8  ar  
 11   5  30  1   
 12   6  31  1   
 13   7   9  ar  
 14   7  32  1   
 15   8   9  ar  
 16   8  10  1   
 17   9  33  1   
 18  10  11  1   
 19  10  12  1   
 20  10  34  1   
 21  11  13  1   
 22  11  14  1   
 23  11  35  1   
 24  12  15  1   
 25  12  16  1   
 26  13  17  1   
 27  13  36  1   
 28  13  37  1   
 29  14  18  1   
 30  14  38  1   
 31  14  39  1   
 32  15  17  1   
 33  15  40  1   
 34  15  41  1   
 35  16  18  1   
 36  16  42  1   
 37  16  43  1   
 38  17  19  1   
 39  17  20  1   
 40  18  19  1   
 41  18  21  1   
 42  19  22  1   
 43  19  44  1   
 44  20  23  1   
 45  20  45  1   
 46  20  46  1   
 47  21  24  1   
 48  21  47  1   
 49  21  48  1   
 50  22  49  1   
 51  23  25  1   
 52  23  50  1   
 53  23  51  1   
 54  24  26  1   
 55  24  52  1   
 56  24  53  1   
 57  25  54  1   
 58  25  55  1   
 59  25  56  1   
 60  26  57  1   
 61  26  58  1   
 62  26  59  1   
@<TRIPOS>SUBSTRUCTURE
  1 ****  11 GROUP 4 **** **** 0

# MOE 2024.06 (io_trps.svl 2023.06)
