@<TRIPOS>MOLECULE
N-(5-tert-Butyl-2-hydroxy-phenyl)-2-chloro-acetamide
32 32 1 0 0 
SMALL
USER_CHARGES


@<TRIPOS>ATOM
  1 CL      -1.5600     3.0800     0.6540 Cl    1 <1>  -0.2900 
  2 C       -1.3990     1.3220     0.5720 C.3   1 <1>   0.1910 
  3 C       -2.7500     0.6340     0.4420 C.2   1 <1>   0.5690 
  4 O       -2.7530    -0.5710     0.3770 O.2   1 <1>  -0.5700 
  5 N       -3.8820     1.4010     0.4050 N.am  1 <1>  -0.5470 
  6 C       -5.2550     1.1110     0.2950 C.ar  1 <1>   0.1170 
  7 C       -6.1530     2.1790     0.2910 C.ar  1 <1>   0.0830 
  8 C       -5.7700    -0.1760     0.1910 C.ar  1 <1>  -0.1500 
  9 O       -5.6960     3.4480     0.3900 O.3   1 <1>  -0.5330 
 10 C       -7.5130     1.9590     0.1850 C.ar  1 <1>  -0.1500 
 11 C       -7.1350    -0.4260     0.0840 C.ar  1 <1>  -0.1430 
 12 C       -7.9980     0.6670     0.0830 C.ar  1 <1>  -0.1500 
 13 C       -7.6260    -1.8870    -0.0280 C.3   1 <1>   0.1440 
 14 C       -7.0190    -2.5390    -1.2790 C.3   1 <1>  -0.2400 
 15 C       -7.1910    -2.6720     1.2190 C.3   1 <1>  -0.2400 
 16 C       -9.1560    -2.0050    -0.1390 C.3   1 <1>  -0.2400 
 17 H       -0.9080     0.9980     1.4700 H     1 <1>   0.0800 
 18 H       -0.7870     1.0910    -0.2800 H     1 <1>   0.0800 
 19 H       -3.7210     2.4120     0.4700 H     1 <1>   0.3700 
 20 H       -5.0870    -1.0020     0.1940 H     1 <1>   0.1500 
 21 H       -6.4140     4.1060     0.3750 H     1 <1>   0.4500 
 22 H       -8.2020     2.7830     0.1820 H     1 <1>   0.1500 
 23 H       -9.0620     0.5410     0.0030 H     1 <1>   0.1500 
 24 H       -7.3780    -3.5450    -1.3960 H     1 <1>   0.0800 
 25 H       -5.9470    -2.5730    -1.2180 H     1 <1>   0.0800 
 26 H       -7.2870    -1.9740    -2.1550 H     1 <1>   0.0800 
 27 H       -6.1200    -2.7080     1.3000 H     1 <1>   0.0800 
 28 H       -7.5550    -3.6830     1.1780 H     1 <1>   0.0800 
 29 H       -7.5800    -2.2020     2.1040 H     1 <1>   0.0800 
 30 H       -9.6310    -1.5870     0.7300 H     1 <1>   0.0800 
 31 H       -9.4500    -3.0370    -0.2140 H     1 <1>   0.0800 
 32 H       -9.5110    -1.4940    -1.0160 H     1 <1>   0.0800 
@<TRIPOS>BOND
  1   1   2  1   
  2   2   3  1   
  3   2  17  1   
  4   2  18  1   
  5   3   4  2   
  6   3   5  am  
  7   5   6  1   
  8   5  19  1   
  9   6   7  ar  
 10   6   8  ar  
 11   7   9  1   
 12   7  10  ar  
 13   8  11  ar  
 14   8  20  1   
 15   9  21  1   
 16  10  12  ar  
 17  10  22  1   
 18  11  12  ar  
 19  11  13  1   
 20  12  23  1   
 21  13  14  1   
 22  13  15  1   
 23  13  16  1   
 24  14  24  1   
 25  14  25  1   
 26  14  26  1   
 27  15  27  1   
 28  15  28  1   
 29  15  29  1   
 30  16  30  1   
 31  16  31  1   
 32  16  32  1   
@<TRIPOS>SUBSTRUCTURE
  1 ****   8 GROUP 4 **** **** 0

# MOE 2024.06 (io_trps.svl 2023.06)
