@<TRIPOS>MOLECULE
2-{4-[2-(2,2-Dimethyl-2,3-dihydro-benzofuran-7-yloxy)-acetylamino]-phenoxy}-acet
49 51 1 0 0 
SMALL
USER_CHARGES


@<TRIPOS>ATOM
  1 O        0.0960     1.2320     2.2240 O.2   1 <1>  -0.5700 
  2 C        1.1430     1.5780     1.7340 C.2   1 <1>   0.5690 
  3 N        2.2350     0.7690     1.8470 N.am  1 <1>  -0.5470 
  4 C        1.2220     2.9230     1.0140 C.3   1 <1>   0.1810 
  5 C        3.5030     0.9590     1.2870 C.ar  1 <1>   0.1170 
  6 O        1.7290     2.7620    -0.3070 O.3   1 <1>  -0.3630 
  7 C        4.2870     2.0490     1.6440 C.ar  1 <1>  -0.1500 
  8 C        3.9760     0.0740     0.3280 C.ar  1 <1>  -0.1500 
  9 C        2.2020     3.8090    -1.0350 C.ar  1 <1>   0.0830 
 10 C        5.4960     2.2840     1.0180 C.ar  1 <1>  -0.1500 
 11 C        5.1860     0.3050    -0.3010 C.ar  1 <1>  -0.1500 
 12 C        2.8940     4.9150    -0.5300 C.ar  1 <1>   0.0830 
 13 C        1.9960     3.7420    -2.4060 C.ar  1 <1>  -0.1500 
 14 C        5.9380     1.4230     0.0190 C.ar  1 <1>   0.0830 
 15 O        3.2320     5.1640     0.7550 O.3   1 <1>  -0.3630 
 16 C        3.3430     5.9010    -1.3710 C.ar  1 <1>  -0.1430 
 17 C        2.4520     4.7460    -3.2510 C.ar  1 <1>  -0.1500 
 18 O        7.0660     1.6330    -0.7090 O.3   1 <1>  -0.3630 
 19 C        3.8640     6.4280     0.8740 C.3   1 <1>   0.2800 
 20 C        3.1310     5.8390    -2.7350 C.ar  1 <1>  -0.1500 
 21 C        4.0630     6.9440    -0.5690 C.3   1 <1>  -0.0170 
 22 C        7.6540     2.9300    -0.8060 C.3   1 <1>   0.1810 
 23 C        2.9190     7.3210     1.6800 C.3   1 <1>  -0.2400 
 24 C        5.1840     6.2180     1.6160 C.3   1 <1>  -0.2400 
 25 C        6.7260     3.9860    -1.4130 C.2   1 <1>   0.5690 
 26 O        7.0310     5.1490    -1.3190 O.2   1 <1>  -0.5700 
 27 N        5.5780     3.6400    -2.0280 N.am  1 <1>  -0.8000 
 28 H        2.0310    -0.1420     2.2570 H     1 <1>   0.3700 
 29 H        1.8580     3.5610     1.5860 H     1 <1>   0.0800 
 30 H        0.2460     3.3640     0.9420 H     1 <1>   0.0800 
 31 H        3.9420     2.7260     2.4040 H     1 <1>   0.1500 
 32 H        3.3860    -0.7830     0.0590 H     1 <1>   0.1500 
 33 H        6.0690     3.1430     1.3120 H     1 <1>   0.1500 
 34 H        5.5450    -0.3730    -1.0560 H     1 <1>   0.1500 
 35 H        1.4720     2.8950    -2.8120 H     1 <1>   0.1500 
 36 H        2.2760     4.6760    -4.3100 H     1 <1>   0.1500 
 37 H        3.4900     6.6210    -3.3820 H     1 <1>   0.1500 
 38 H        3.6320     7.9170    -0.7130 H     1 <1>   0.0800 
 39 H        5.1030     6.9750    -0.8380 H     1 <1>   0.0800 
 40 H        8.5230     2.8380    -1.4300 H     1 <1>   0.0800 
 41 H        7.9720     3.2350     0.1730 H     1 <1>   0.0800 
 42 H        1.9770     7.4220     1.1700 H     1 <1>   0.0800 
 43 H        3.3480     8.2990     1.8030 H     1 <1>   0.0800 
 44 H        2.7470     6.8990     2.6540 H     1 <1>   0.0800 
 45 H        5.8210     5.5590     1.0560 H     1 <1>   0.0800 
 46 H        5.0050     5.7950     2.5880 H     1 <1>   0.0800 
 47 H        5.6930     7.1560     1.7370 H     1 <1>   0.0800 
 48 H        4.8870     4.3550    -2.2740 H     1 <1>   0.3700 
 49 H        5.2130     2.6860    -1.9710 H     1 <1>   0.3700 
@<TRIPOS>BOND
  1   1   2  2   
  2   2   3  am  
  3   2   4  1   
  4   3   5  1   
  5   3  28  1   
  6   4   6  1   
  7   4  29  1   
  8   4  30  1   
  9   5   7  ar  
 10   5   8  ar  
 11   6   9  1   
 12   7  10  ar  
 13   7  31  1   
 14   8  11  ar  
 15   8  32  1   
 16   9  12  ar  
 17   9  13  ar  
 18  10  14  ar  
 19  10  33  1   
 20  11  14  ar  
 21  11  34  1   
 22  12  15  1   
 23  12  16  ar  
 24  13  17  ar  
 25  13  35  1   
 26  14  18  1   
 27  15  19  1   
 28  16  20  ar  
 29  16  21  1   
 30  17  20  ar  
 31  17  36  1   
 32  18  22  1   
 33  19  21  1   
 34  19  23  1   
 35  19  24  1   
 36  20  37  1   
 37  21  38  1   
 38  21  39  1   
 39  22  25  1   
 40  22  40  1   
 41  22  41  1   
 42  23  42  1   
 43  23  43  1   
 44  23  44  1   
 45  24  45  1   
 46  24  46  1   
 47  24  47  1   
 48  25  26  2   
 49  25  27  am  
 50  27  48  1   
 51  27  49  1   
@<TRIPOS>SUBSTRUCTURE
  1 ****  12 GROUP 4 **** **** 0

# MOE 2024.06 (io_trps.svl 2023.06)
