@<TRIPOS>MOLECULE
3-Methyl-4-(2-oxo-2-piperidin-1-yl-ethoxy)-N-propyl-benzenesulfonamide
50 51 1 0 0 
SMALL
USER_CHARGES


@<TRIPOS>ATOM
  1 S        0.2530    -0.2060    -0.0800 S.o2  1 <1>   1.4470 
  2 O        0.2760    -0.4520     1.3450 O.2   1 <1>  -0.6500 
  3 O       -0.1020    -1.2610    -1.0010 O.2   1 <1>  -0.6500 
  4 N       -0.8820     0.9950    -0.3750 N.am  1 <1>  -0.9140 
  5 C        1.8100     0.5660    -0.5920 C.ar  1 <1>  -0.0090 
  6 C       -2.0550     0.9790     0.4870 C.3   1 <1>   0.1960 
  7 C        2.2070     1.7850    -0.0580 C.ar  1 <1>  -0.1500 
  8 C        2.6430    -0.0410    -1.5240 C.ar  1 <1>  -0.1500 
  9 C       -2.9780    -0.1930     0.1360 C.3   1 <1>  -0.1600 
 10 C        3.3990     2.3880    -0.4250 C.ar  1 <1>  -0.1430 
 11 C        3.8370     0.5430    -1.9040 C.ar  1 <1>  -0.1500 
 12 C       -4.2780    -0.1340     0.9450 C.3   1 <1>  -0.2400 
 13 C        4.2270     1.7550    -1.3450 C.ar  1 <1>   0.0830 
 14 C        3.7910     3.7280     0.1820 C.3   1 <1>  -0.0970 
 15 O        5.4020     2.3520    -1.6540 O.3   1 <1>  -0.3630 
 16 C        6.5010     1.5870    -2.1280 C.3   1 <1>   0.1810 
 17 C        7.8240     2.2730    -1.8050 C.2   1 <1>   0.5690 
 18 O        8.5050     2.6170    -2.7450 O.2   1 <1>  -0.5700 
 19 N        8.2380     2.4570    -0.5040 N.am  1 <1>  -0.6600 
 20 C        7.4520     2.0740     0.7050 C.3   1 <1>   0.1400 
 21 C        9.5370     3.1180    -0.1930 C.3   1 <1>   0.1400 
 22 C        8.2850     1.1410     1.5900 C.3   1 <1>  -0.1600 
 23 C       10.3890     2.1960     0.6850 C.3   1 <1>  -0.1600 
 24 C        9.6390     1.7670     1.9530 C.3   1 <1>  -0.1600 
 25 H       -1.1980     0.8010    -1.3230 H     1 <1>   0.4200 
 26 H       -2.5920     1.9010     0.3420 H     1 <1>   0.0800 
 27 H       -1.7600     0.9340     1.5230 H     1 <1>   0.0800 
 28 H        1.5630     2.2650     0.6600 H     1 <1>   0.1500 
 29 H        2.3530    -0.9830    -1.9580 H     1 <1>   0.1500 
 30 H       -2.4850    -1.1260     0.3530 H     1 <1>   0.0800 
 31 H       -3.2180    -0.1670    -0.9120 H     1 <1>   0.0800 
 32 H        4.4470     0.0480    -2.6360 H     1 <1>   0.1500 
 33 H       -4.0670    -0.1810     2.0000 H     1 <1>   0.0800 
 34 H       -4.9080    -0.9680     0.6880 H     1 <1>   0.0800 
 35 H       -4.8150     0.7750     0.7370 H     1 <1>   0.0800 
 36 H        3.0070     4.1170     0.8060 H     1 <1>   0.0800 
 37 H        3.9870     4.4380    -0.6010 H     1 <1>   0.0800 
 38 H        4.6800     3.6150     0.7740 H     1 <1>   0.0800 
 39 H        6.3960     1.4770    -3.1910 H     1 <1>   0.0800 
 40 H        6.4900     0.6220    -1.6580 H     1 <1>   0.0800 
 41 H        6.5340     1.5820     0.4420 H     1 <1>   0.0800 
 42 H        7.2010     2.9670     1.2520 H     1 <1>   0.0800 
 43 H        9.3430     4.0420     0.3230 H     1 <1>   0.0800 
 44 H       10.0740     3.3500    -1.0980 H     1 <1>   0.0800 
 45 H        8.4430     0.2140     1.0670 H     1 <1>   0.0800 
 46 H        7.7360     0.9210     2.4880 H     1 <1>   0.0800 
 47 H       11.2970     2.7060     0.9560 H     1 <1>   0.0800 
 48 H       10.6610     1.3280     0.1100 H     1 <1>   0.0800 
 49 H       10.2320     1.0580     2.5050 H     1 <1>   0.0800 
 50 H        9.4780     2.6270     2.5810 H     1 <1>   0.0800 
@<TRIPOS>BOND
  1   1   2  2   
  2   1   3  2   
  3   1   4  am  
  4   1   5  1   
  5   4   6  1   
  6   4  25  1   
  7   5   7  ar  
  8   5   8  ar  
  9   6   9  1   
 10   6  26  1   
 11   6  27  1   
 12   7  10  ar  
 13   7  28  1   
 14   8  11  ar  
 15   8  29  1   
 16   9  12  1   
 17   9  30  1   
 18   9  31  1   
 19  10  13  ar  
 20  10  14  1   
 21  11  13  ar  
 22  11  32  1   
 23  12  33  1   
 24  12  34  1   
 25  12  35  1   
 26  13  15  1   
 27  14  36  1   
 28  14  37  1   
 29  14  38  1   
 30  15  16  1   
 31  16  17  1   
 32  16  39  1   
 33  16  40  1   
 34  17  18  2   
 35  17  19  am  
 36  19  20  1   
 37  19  21  1   
 38  20  22  1   
 39  20  41  1   
 40  20  42  1   
 41  21  23  1   
 42  21  43  1   
 43  21  44  1   
 44  22  24  1   
 45  22  45  1   
 46  22  46  1   
 47  23  24  1   
 48  23  47  1   
 49  23  48  1   
 50  24  49  1   
 51  24  50  1   
@<TRIPOS>SUBSTRUCTURE
  1 ****  13 GROUP 4 **** **** 0

# MOE 2024.06 (io_trps.svl 2023.06)
