@<TRIPOS>MOLECULE
(2,7-Dimethyl-thiazolo[5,4-b]indol-4-yl)-acetic acid ethyl ester
36 38 1 0 0 
SMALL
USER_CHARGES


@<TRIPOS>ATOM
  1 S       -0.4530    -0.1390    -0.3210 S.3   1 <1>  -0.0800 
  2 C       -2.1360     0.2380    -0.5360 C.2   1 <1>  -0.1120 
  3 C       -0.2220     1.5320     0.2270 C.2   1 <1>   0.1980 
  4 N       -3.2480    -0.4200    -0.9480 N.pl3 1 <1>   0.0480 
  5 C       -2.3670     1.5160    -0.1980 C.2   1 <1>   0.2270 
  6 N       -1.2740     2.2550     0.2360 N.2   1 <1>  -0.5650 
  7 C        1.1800     1.9280     0.6230 C.3   1 <1>  -0.0600 
  8 C       -4.2720     0.5120    -0.8640 C.ar  1 <1>  -0.1520 
  9 C       -3.3260    -1.8210    -1.3960 C.3   1 <1>   0.1570 
 10 C       -3.7510     1.7280    -0.4010 C.ar  1 <1>   0.0000 
 11 C       -5.6350     0.3990    -1.1530 C.ar  1 <1>  -0.1500 
 12 C       -3.8140    -2.7010    -0.2710 C.2   1 <1>   0.6590 
 13 C       -4.5930     2.8300    -0.2330 C.ar  1 <1>  -0.1500 
 14 C       -6.4490     1.4960    -0.9800 C.ar  1 <1>  -0.1500 
 15 O       -3.0590    -3.4040     0.3510 O.2   1 <1>  -0.5700 
 16 O       -5.1170    -2.6570    -0.0210 O.3   1 <1>  -0.4300 
 17 C       -5.9350     2.7150    -0.5210 C.ar  1 <1>  -0.1430 
 18 C       -5.7100    -3.3250     1.0710 C.3   1 <1>   0.1200 
 19 C       -6.8740     3.8940    -0.3470 C.3   1 <1>  -0.0970 
 20 C       -5.6150    -2.4220     2.2990 C.3   1 <1>  -0.2400 
 21 H        1.8420     1.8080    -0.2140 H     1 <1>   0.0800 
 22 H        1.5160     1.3110     1.4350 H     1 <1>   0.0800 
 23 H        1.1910     2.9560     0.9360 H     1 <1>   0.0800 
 24 H       -2.3510    -2.1460    -1.7030 H     1 <1>   0.0800 
 25 H       -3.9990    -1.8890    -2.2280 H     1 <1>   0.0800 
 26 H       -6.0420    -0.5330    -1.5010 H     1 <1>   0.1500 
 27 H       -4.1630     3.7490     0.1230 H     1 <1>   0.1500 
 28 H       -7.5000     1.4200    -1.1990 H     1 <1>   0.1500 
 29 H       -5.2090    -4.2660     1.2320 H     1 <1>   0.0800 
 30 H       -6.7400    -3.5120     0.8210 H     1 <1>   0.0800 
 31 H       -6.3420     4.7580     0.0080 H     1 <1>   0.0800 
 32 H       -7.6420     3.6480     0.3630 H     1 <1>   0.0800 
 33 H       -7.3330     4.1380    -1.2890 H     1 <1>   0.0800 
 34 H       -4.5850    -2.2520     2.5580 H     1 <1>   0.0800 
 35 H       -6.1010    -2.8920     3.1340 H     1 <1>   0.0800 
 36 H       -6.0960    -1.4790     2.1060 H     1 <1>   0.0800 
@<TRIPOS>BOND
  1   1   2  1   
  2   1   3  1   
  3   2   4  1   
  4   2   5  2   
  5   3   6  2   
  6   3   7  1   
  7   4   8  1   
  8   4   9  1   
  9   5   6  1   
 10   5  10  1   
 11   7  21  1   
 12   7  22  1   
 13   7  23  1   
 14   8  10  ar  
 15   8  11  ar  
 16   9  12  1   
 17   9  24  1   
 18   9  25  1   
 19  10  13  ar  
 20  11  14  ar  
 21  11  26  1   
 22  12  15  2   
 23  12  16  1   
 24  13  17  ar  
 25  13  27  1   
 26  14  17  ar  
 27  14  28  1   
 28  16  18  1   
 29  17  19  1   
 30  18  20  1   
 31  18  29  1   
 32  18  30  1   
 33  19  31  1   
 34  19  32  1   
 35  19  33  1   
 36  20  34  1   
 37  20  35  1   
 38  20  36  1   
@<TRIPOS>SUBSTRUCTURE
  1 ****   8 GROUP 4 **** **** 0

# MOE 2024.06 (io_trps.svl 2023.06)
