@<TRIPOS>MOLECULE
(1-Furan-2-yl-propyl)-methyl-amine
24 24 1 0 0 
SMALL
USER_CHARGES


@<TRIPOS>ATOM
  1 O        0.3410     0.0800    -0.1370 O.3   1 <1>  -0.2800 
  2 C        1.2760     1.0140    -0.0770 C.2   1 <1>  -0.0400 
  3 C       -0.8280     0.6710     0.0080 C.2   1 <1>  -0.0100 
  4 C        0.7100     2.2280     0.1160 C.2   1 <1>  -0.1500 
  5 C        2.7230     0.5660    -0.2160 C.3   1 <1>   0.6030 
  6 C       -0.6710     2.0010     0.1700 C.2   1 <1>  -0.1500 
  7 N        2.8660    -0.5970     0.6770 N.4   1 <1>  -0.9060 
  8 C        3.7170     1.6720     0.1770 C.3   1 <1>  -0.1600 
  9 C        3.6980    -1.7020     0.1220 C.3   1 <1>   0.2630 
 10 C        5.2010     1.2720     0.1110 C.3   1 <1>  -0.2400 
 11 H       -1.7260     0.0760    -0.0180 H     1 <1>   0.1500 
 12 H        1.1680     3.1990     0.2130 H     1 <1>   0.1500 
 13 H        2.8890     0.2650    -1.2380 H     1 <1>   0.0800 
 14 H       -1.4270     2.7550     0.3110 H     1 <1>   0.1500 
 15 H        1.8940    -0.9180     0.8140 H     1 <1>   0.4500 
 16 H        3.2010    -0.2690     1.5880 H     1 <1>   0.4500 
 17 H        3.4860     2.0330     1.1640 H     1 <1>   0.0800 
 18 H        3.5690     2.4970    -0.4990 H     1 <1>   0.0800 
 19 H        3.2860    -2.0490    -0.8120 H     1 <1>   0.0800 
 20 H        3.7240    -2.5310     0.8120 H     1 <1>   0.0800 
 21 H        4.7080    -1.3680    -0.0490 H     1 <1>   0.0800 
 22 H        5.4480     0.5380     0.8570 H     1 <1>   0.0800 
 23 H        5.8150     2.1390     0.2920 H     1 <1>   0.0800 
 24 H        5.4540     0.8890    -0.8630 H     1 <1>   0.0800 
@<TRIPOS>BOND
  1   1   2  1   
  2   1   3  1   
  3   2   4  2   
  4   2   5  1   
  5   3   6  2   
  6   3  11  1   
  7   4   6  1   
  8   4  12  1   
  9   5   7  1   
 10   5   8  1   
 11   5  13  1   
 12   6  14  1   
 13   7   9  1   
 14   7  15  1   
 15   7  16  1   
 16   8  10  1   
 17   8  17  1   
 18   8  18  1   
 19   9  19  1   
 20   9  20  1   
 21   9  21  1   
 22  10  22  1   
 23  10  23  1   
 24  10  24  1   
@<TRIPOS>SUBSTRUCTURE
  1 ****   2 GROUP 4 **** **** 0

# MOE 2024.06 (io_trps.svl 2023.06)
