@<TRIPOS>MOLECULE
2-Cyclohexyl-N-[3-(4-methoxy-phenyl)-[1,2,4]oxadiazol-5-ylmethyl]-acetamide
47 49 1 0 0 
SMALL
USER_CHARGES


@<TRIPOS>ATOM
  1 O        0.0410     1.3530     2.7910 O.2   1 <1>  -0.5700 
  2 C        0.2970     1.7480     1.6820 C.2   1 <1>   0.5690 
  3 N        1.5210     1.5720     1.1320 N.am  1 <1>  -0.7300 
  4 C       -0.7720     2.4660     0.8820 C.3   1 <1>  -0.0990 
  5 C        2.6630     0.9280     1.8300 C.3   1 <1>   0.3200 
  6 C       -1.7670     1.5050     0.2020 C.3   1 <1>  -0.0800 
  7 C        3.9440     1.7220     1.6330 C.2   1 <1>   0.2980 
  8 C       -1.0760     0.5930    -0.8300 C.3   1 <1>  -0.1600 
  9 C       -2.9000     2.3070    -0.4640 C.3   1 <1>  -0.1600 
 10 O        4.0870     2.8480     2.2820 O.3   1 <1>  -0.0190 
 11 N        4.9130     1.4020     0.8760 N.2   1 <1>  -0.5650 
 12 C       -2.0840    -0.3230    -1.5360 C.3   1 <1>  -0.1600 
 13 C       -3.9060     1.3870    -1.1670 C.3   1 <1>  -0.1600 
 14 N        5.2490     3.2830     1.9050 N.2   1 <1>  -0.4100 
 15 C        5.7420     2.4330     1.0750 C.2   1 <1>   0.4620 
 16 C       -3.2090     0.4860    -2.1920 C.3   1 <1>  -0.1600 
 17 C        7.0320     2.5430     0.4130 C.ar  1 <1>   0.0540 
 18 C        7.8690     3.6390     0.6360 C.ar  1 <1>  -0.1500 
 19 C        7.4910     1.5650    -0.4720 C.ar  1 <1>  -0.1500 
 20 C        9.0970     3.7590     0.0110 C.ar  1 <1>  -0.1500 
 21 C        8.7170     1.6760    -1.1000 C.ar  1 <1>  -0.1500 
 22 C        9.5300     2.7710    -0.8670 C.ar  1 <1>   0.0830 
 23 O       10.7160     2.8070    -1.5210 O.3   1 <1>  -0.3630 
 24 C       11.6170     3.8780    -1.3530 C.3   1 <1>   0.0400 
 25 H        1.7130     1.9020     0.1850 H     1 <1>   0.3700 
 26 H       -0.3070     3.0950     0.1460 H     1 <1>   0.0800 
 27 H       -1.3070     3.1030     1.5620 H     1 <1>   0.0800 
 28 H        2.8000    -0.0620     1.4340 H     1 <1>   0.0800 
 29 H        2.4580     0.8440     2.8840 H     1 <1>   0.0800 
 30 H       -2.2020     0.8820     0.9670 H     1 <1>   0.0800 
 31 H       -0.3390    -0.0220    -0.3430 H     1 <1>   0.0800 
 32 H       -0.5740     1.1960    -1.5670 H     1 <1>   0.0800 
 33 H       -2.4840     2.9890    -1.1860 H     1 <1>   0.0800 
 34 H       -3.4180     2.8890     0.2790 H     1 <1>   0.0800 
 35 H       -2.5080    -1.0050    -0.8180 H     1 <1>   0.0800 
 36 H       -1.5770    -0.9080    -2.2850 H     1 <1>   0.0800 
 37 H       -4.6550     1.9820    -1.6610 H     1 <1>   0.0800 
 38 H       -4.4030     0.7750    -0.4340 H     1 <1>   0.0800 
 39 H       -3.9270    -0.1850    -2.6300 H     1 <1>   0.0800 
 40 H       -2.7990     1.0920    -2.9820 H     1 <1>   0.0800 
 41 H        7.5500     4.4140     1.3120 H     1 <1>   0.1500 
 42 H        6.8790     0.7020    -0.6720 H     1 <1>   0.1500 
 43 H        9.6990     4.6220     0.2180 H     1 <1>   0.1500 
 44 H        9.0530     0.9130    -1.7790 H     1 <1>   0.1500 
 45 H       12.4790     3.6880    -1.9670 H     1 <1>   0.0800 
 46 H       11.9080     3.9300    -0.3190 H     1 <1>   0.0800 
 47 H       11.1380     4.7890    -1.6660 H     1 <1>   0.0800 
@<TRIPOS>BOND
  1   1   2  2   
  2   2   3  am  
  3   2   4  1   
  4   3   5  1   
  5   3  25  1   
  6   4   6  1   
  7   4  26  1   
  8   4  27  1   
  9   5   7  1   
 10   5  28  1   
 11   5  29  1   
 12   6   8  1   
 13   6   9  1   
 14   6  30  1   
 15   7  10  1   
 16   7  11  2   
 17   8  12  1   
 18   8  31  1   
 19   8  32  1   
 20   9  13  1   
 21   9  33  1   
 22   9  34  1   
 23  10  14  1   
 24  11  15  1   
 25  12  16  1   
 26  12  35  1   
 27  12  36  1   
 28  13  16  1   
 29  13  37  1   
 30  13  38  1   
 31  14  15  2   
 32  15  17  1   
 33  16  39  1   
 34  16  40  1   
 35  17  18  ar  
 36  17  19  ar  
 37  18  20  ar  
 38  18  41  1   
 39  19  21  ar  
 40  19  42  1   
 41  20  22  ar  
 42  20  43  1   
 43  21  22  ar  
 44  21  44  1   
 45  22  23  1   
 46  23  24  1   
 47  24  45  1   
 48  24  46  1   
 49  24  47  1   
@<TRIPOS>SUBSTRUCTURE
  1 ****   7 GROUP 4 **** **** 0

# MOE 2024.06 (io_trps.svl 2023.06)
