@<TRIPOS>MOLECULE
1-Ethyl-2,3-dimethyl-1H-indol-5-ylamine
30 31 1 0 0 
SMALL
USER_CHARGES


@<TRIPOS>ATOM
  1 N       -0.0220     0.2320    -0.3090 N.pl3 1 <1>   0.0480 
  2 C        1.2660     0.6180    -0.0030 C.ar  1 <1>  -0.1520 
  3 C       -0.7920     1.3670    -0.3950 C.2   1 <1>  -0.3320 
  4 C       -0.4600    -1.1680    -0.5030 C.3   1 <1>   0.0960 
  5 C        1.2970     2.0020     0.0980 C.ar  1 <1>   0.0000 
  6 C        2.4270    -0.1350     0.2040 C.ar  1 <1>  -0.1500 
  7 C       -0.0170     2.4550    -0.1530 C.2   1 <1>  -0.1810 
  8 C       -2.2790     1.3090    -0.7130 C.3   1 <1>  -0.0600 
  9 C       -0.8230    -1.8100     0.8400 C.3   1 <1>  -0.2400 
 10 C        2.5000     2.6500     0.4000 C.ar  1 <1>  -0.1500 
 11 C        3.6020     0.5160     0.5000 C.ar  1 <1>  -0.1500 
 12 C       -0.3870     3.9260    -0.1290 C.3   1 <1>  -0.0590 
 13 C        3.6490     1.9150     0.5940 C.ar  1 <1>   0.1000 
 14 N        4.8560     2.5420     0.8750 N.pl3 1 <1>  -0.9000 
 15 H        0.3380    -1.7150    -0.9720 H     1 <1>   0.0800 
 16 H       -1.3070    -1.1830    -1.1620 H     1 <1>   0.0800 
 17 H        2.3950    -1.2060     0.1360 H     1 <1>   0.1500 
 18 H       -2.4300     0.8940    -1.6930 H     1 <1>   0.0800 
 19 H       -2.7190     2.2880    -0.6920 H     1 <1>   0.0800 
 20 H       -2.7880     0.6980     0.0110 H     1 <1>   0.0800 
 21 H        0.0310    -1.8090     1.4940 H     1 <1>   0.0800 
 22 H       -1.1380    -2.8260     0.6870 H     1 <1>   0.0800 
 23 H       -1.6250    -1.2670     1.3060 H     1 <1>   0.0800 
 24 H        2.5110     3.7180     0.4810 H     1 <1>   0.1500 
 25 H        4.5030    -0.0420     0.6690 H     1 <1>   0.1500 
 26 H       -1.4250     4.0730    -0.3550 H     1 <1>   0.0800 
 27 H        0.2000     4.4570    -0.8560 H     1 <1>   0.0800 
 28 H       -0.1860     4.3310     0.8460 H     1 <1>   0.0800 
 29 H        5.6760     2.0160     0.5640 H     1 <1>   0.4000 
 30 H        4.9030     3.5090     0.5440 H     1 <1>   0.4000 
@<TRIPOS>BOND
  1   1   2  1   
  2   1   3  1   
  3   1   4  1   
  4   2   5  ar  
  5   2   6  ar  
  6   3   7  2   
  7   3   8  1   
  8   4   9  1   
  9   4  15  1   
 10   4  16  1   
 11   5   7  1   
 12   5  10  ar  
 13   6  11  ar  
 14   6  17  1   
 15   7  12  1   
 16   8  18  1   
 17   8  19  1   
 18   8  20  1   
 19   9  21  1   
 20   9  22  1   
 21   9  23  1   
 22  10  13  ar  
 23  10  24  1   
 24  11  13  ar  
 25  11  25  1   
 26  12  26  1   
 27  12  27  1   
 28  12  28  1   
 29  13  14  1   
 30  14  29  1   
 31  14  30  1   
@<TRIPOS>SUBSTRUCTURE
  1 ****   2 GROUP 4 **** **** 0

# MOE 2024.06 (io_trps.svl 2023.06)
