@<TRIPOS>MOLECULE
4-(3,4-Dimethoxy-phenyl)-2,7-dimethyl-5-oxo-1,4,5,6,7,8-hexahydro-quinoline-3-ca
62 65 1 0 0 
SMALL
USER_CHARGES


@<TRIPOS>ATOM
  1 O        0.7020    -0.4690    -2.0180 O.2   1 <1>  -0.5700 
  2 C        0.6040    -1.4780    -1.3610 C.2   1 <1>   0.4950 
  3 C        1.7010    -2.1660    -0.7680 C.2   1 <1>  -0.1240 
  4 C       -0.7860    -2.0770    -1.2110 C.3   1 <1>  -0.0990 
  5 C        1.5820    -3.3530    -0.1240 C.2   1 <1>  -0.0380 
  6 C        3.0740    -1.5010    -0.8880 C.3   1 <1>   0.3400 
  7 C       -0.9070    -2.9730     0.0350 C.3   1 <1>  -0.0800 
  8 N        2.6770    -4.0300     0.3550 N.pl3 1 <1>  -0.6000 
  9 C        0.2280    -4.0130     0.0820 C.3   1 <1>  -0.0220 
 10 C        4.2330    -2.4070    -0.4580 C.2   1 <1>  -0.1240 
 11 C        3.1090    -0.2470    -0.0100 C.ar  1 <1>  -0.1440 
 12 C       -2.2810    -3.6530     0.0880 C.3   1 <1>  -0.2400 
 13 C        3.9710    -3.6060     0.1330 C.2   1 <1>  -0.0380 
 14 C        5.5130    -1.8240    -0.7230 C.2   1 <1>   0.6160 
 15 C        3.4240     0.9860    -0.5600 C.ar  1 <1>  -0.1500 
 16 C        2.8440    -0.3330     1.3480 C.ar  1 <1>  -0.1500 
 17 C        5.0170    -4.6120     0.5860 C.3   1 <1>  -0.1020 
 18 O        5.7430    -1.2920    -1.7930 O.2   1 <1>  -0.5700 
 19 N        6.4710    -1.8500     0.2530 N.am  1 <1>  -0.5470 
 20 C        3.4780     2.1370     0.2240 C.ar  1 <1>   0.0830 
 21 C        2.8810     0.8000     2.1380 C.ar  1 <1>  -0.1500 
 22 C        7.8020    -1.5100     0.3040 C.ar  1 <1>   0.4270 
 23 O        3.8320     3.3420    -0.3110 O.3   1 <1>  -0.3620 
 24 C        3.1830     2.0370     1.5940 C.ar  1 <1>   0.0830 
 25 N        8.3870    -1.9350     1.4140 N.ar  1 <1>  -0.6200 
 26 C        8.4740    -0.7970    -0.6880 C.ar  1 <1>  -0.1500 
 27 C        4.3580     3.4480    -1.6160 C.3   1 <1>   0.0400 
 28 O        3.1660     3.0750     2.4780 O.3   1 <1>  -0.3630 
 29 C        9.6700    -1.6510     1.5500 C.ar  1 <1>   0.1670 
 30 C        9.8100    -0.5080    -0.5390 C.ar  1 <1>  -0.1500 
 31 C        2.7240     4.3520     2.0760 C.3   1 <1>   0.0400 
 32 C       10.4170    -0.9520     0.6170 C.ar  1 <1>  -0.1500 
 33 C       10.3200    -2.1430     2.8260 C.3   1 <1>  -0.0970 
 34 H       -0.9980    -2.6450    -2.0980 H     1 <1>   0.0800 
 35 H       -1.5000    -1.2760    -1.1510 H     1 <1>   0.0800 
 36 H        3.2150    -1.2330    -1.9210 H     1 <1>   0.0800 
 37 H       -0.8090    -2.3420     0.9040 H     1 <1>   0.0800 
 38 H        2.5350    -4.9310     0.8270 H     1 <1>   0.4000 
 39 H        0.2070    -4.5040     1.0400 H     1 <1>   0.0800 
 40 H        0.0850    -4.7570    -0.6820 H     1 <1>   0.0800 
 41 H       -2.4240    -4.2950    -0.7640 H     1 <1>   0.0800 
 42 H       -3.0630    -2.9140     0.0940 H     1 <1>   0.0800 
 43 H       -2.3720    -4.2450     0.9820 H     1 <1>   0.0800 
 44 H        3.6270     1.0280    -1.6130 H     1 <1>   0.1500 
 45 H        2.6070    -1.2840     1.7940 H     1 <1>   0.1500 
 46 H        4.7430    -5.5980     0.2560 H     1 <1>   0.0800 
 47 H        5.0870    -4.6140     1.6590 H     1 <1>   0.0800 
 48 H        5.9860    -4.4000     0.1740 H     1 <1>   0.0800 
 49 H        6.1650    -2.2420     1.1380 H     1 <1>   0.3700 
 50 H        2.6720     0.7320     3.1900 H     1 <1>   0.1500 
 51 H        7.9570    -0.4680    -1.5670 H     1 <1>   0.1500 
 52 H        4.6560     4.4680    -1.7750 H     1 <1>   0.0800 
 53 H        3.5940     3.1770    -2.3230 H     1 <1>   0.0800 
 54 H        5.2120     2.7990    -1.7030 H     1 <1>   0.0800 
 55 H       10.3550     0.0400    -1.2880 H     1 <1>   0.1500 
 56 H        2.4180     4.8930     2.9530 H     1 <1>   0.0800 
 57 H        1.8940     4.2410     1.4000 H     1 <1>   0.0800 
 58 H        3.5390     4.8660     1.5980 H     1 <1>   0.0800 
 59 H       11.4590    -0.7530     0.7850 H     1 <1>   0.1500 
 60 H        9.8180    -1.7120     3.6730 H     1 <1>   0.0800 
 61 H       11.3590    -1.8730     2.8630 H     1 <1>   0.0800 
 62 H       10.2370    -3.2130     2.8820 H     1 <1>   0.0800 
@<TRIPOS>BOND
  1   1   2  2   
  2   2   3  1   
  3   2   4  1   
  4   3   5  2   
  5   3   6  1   
  6   4   7  1   
  7   4  34  1   
  8   4  35  1   
  9   5   8  1   
 10   5   9  1   
 11   6  10  1   
 12   6  11  1   
 13   6  36  1   
 14   7   9  1   
 15   7  12  1   
 16   7  37  1   
 17   8  13  1   
 18   8  38  1   
 19   9  39  1   
 20   9  40  1   
 21  10  13  2   
 22  10  14  1   
 23  11  15  ar  
 24  11  16  ar  
 25  12  41  1   
 26  12  42  1   
 27  12  43  1   
 28  13  17  1   
 29  14  18  2   
 30  14  19  am  
 31  15  20  ar  
 32  15  44  1   
 33  16  21  ar  
 34  16  45  1   
 35  17  46  1   
 36  17  47  1   
 37  17  48  1   
 38  19  22  1   
 39  19  49  1   
 40  20  23  1   
 41  20  24  ar  
 42  21  24  ar  
 43  21  50  1   
 44  22  25  ar  
 45  22  26  ar  
 46  23  27  1   
 47  24  28  1   
 48  25  29  ar  
 49  26  30  ar  
 50  26  51  1   
 51  27  52  1   
 52  27  53  1   
 53  27  54  1   
 54  28  31  1   
 55  29  32  ar  
 56  29  33  1   
 57  30  32  ar  
 58  30  55  1   
 59  31  56  1   
 60  31  57  1   
 61  31  58  1   
 62  32  59  1   
 63  33  60  1   
 64  33  61  1   
 65  33  62  1   
@<TRIPOS>SUBSTRUCTURE
  1 ****  11 GROUP 4 **** **** 0

# MOE 2024.06 (io_trps.svl 2023.06)
