@<TRIPOS>MOLECULE
Furan-2-carboxylic acid [2-(4-benzyl-piperidin-1-yl)-2-oxo-ethyl]-amide
46 48 1 0 0 
SMALL
USER_CHARGES


@<TRIPOS>ATOM
  1 O        0.8470     0.0710     1.0120 O.2   1 <1>  -0.5700 
  2 C        1.6110    -0.8270     0.7160 C.2   1 <1>   0.7150 
  3 N        2.9360    -0.5290     0.8050 N.am  1 <1>  -0.7300 
  4 C        1.0930    -2.1150     0.2950 C.2   1 <1>   0.0550 
  5 C        4.1010    -1.2950     0.2730 C.3   1 <1>   0.2010 
  6 O        1.8790    -3.1570     0.0220 O.3   1 <1>  -0.2800 
  7 C       -0.2000    -2.5020     0.1090 C.2   1 <1>  -0.1500 
  8 C        5.3980    -0.4770     0.2030 C.2   1 <1>   0.5690 
  9 C        1.1290    -4.1780    -0.3260 C.2   1 <1>  -0.0100 
 10 C       -0.1760    -3.8370    -0.2930 C.2   1 <1>  -0.1500 
 11 O        5.3660     0.6700     0.5930 O.2   1 <1>  -0.5700 
 12 N        6.5530    -1.0390    -0.2890 N.am  1 <1>  -0.6600 
 13 C        7.8260    -0.2670    -0.3400 C.3   1 <1>   0.1400 
 14 C        6.6840    -2.4370    -0.7900 C.3   1 <1>   0.1400 
 15 C        8.8950    -0.9860     0.4890 C.3   1 <1>  -0.1600 
 16 C        7.7360    -3.1800     0.0370 C.3   1 <1>  -0.1600 
 17 C        9.0890    -2.4430     0.0310 C.3   1 <1>  -0.0800 
 18 C       10.1340    -3.1520     0.9120 C.3   1 <1>  -0.0170 
 19 C       10.4060    -4.5750     0.4460 C.ar  1 <1>  -0.1430 
 20 C       11.1460    -4.8030    -0.7040 C.ar  1 <1>  -0.1500 
 21 C        9.9150    -5.6570     1.1620 C.ar  1 <1>  -0.1500 
 22 C       11.3880    -6.0950    -1.1370 C.ar  1 <1>  -0.1500 
 23 C       10.1560    -6.9500     0.7300 C.ar  1 <1>  -0.1500 
 24 C       10.8920    -7.1690    -0.4210 C.ar  1 <1>  -0.1500 
 25 H        3.1700     0.4330     1.0730 H     1 <1>   0.3700 
 26 H        3.8650    -1.6410    -0.7170 H     1 <1>   0.0800 
 27 H        4.2690    -2.1480     0.9060 H     1 <1>   0.0800 
 28 H       -1.0810    -1.8990     0.2460 H     1 <1>   0.1500 
 29 H        1.5980    -5.1130    -0.5820 H     1 <1>   0.1500 
 30 H       -1.0370    -4.4410    -0.5210 H     1 <1>   0.1500 
 31 H        7.6860     0.7300     0.0440 H     1 <1>   0.0800 
 32 H        8.1470    -0.1850    -1.3640 H     1 <1>   0.0800 
 33 H        6.9900    -2.4100    -1.8220 H     1 <1>   0.0800 
 34 H        5.7500    -2.9660    -0.7360 H     1 <1>   0.0800 
 35 H        8.5990    -0.9600     1.5230 H     1 <1>   0.0800 
 36 H        9.8220    -0.4490     0.4000 H     1 <1>   0.0800 
 37 H        7.8560    -4.1670    -0.3730 H     1 <1>   0.0800 
 38 H        7.3780    -3.2850     1.0460 H     1 <1>   0.0800 
 39 H        9.4590    -2.4290    -0.9810 H     1 <1>   0.0800 
 40 H        9.7990    -3.1620     1.9350 H     1 <1>   0.0800 
 41 H       11.0580    -2.6010     0.8850 H     1 <1>   0.0800 
 42 H       11.5380    -3.9740    -1.2670 H     1 <1>   0.1500 
 43 H        9.3410    -5.4990     2.0580 H     1 <1>   0.1500 
 44 H       11.9630    -6.2640    -2.0310 H     1 <1>   0.1500 
 45 H        9.7740    -7.7850     1.2900 H     1 <1>   0.1500 
 46 H       11.0800    -8.1740    -0.7570 H     1 <1>   0.1500 
@<TRIPOS>BOND
  1   1   2  2   
  2   2   3  am  
  3   2   4  1   
  4   3   5  1   
  5   3  25  1   
  6   4   6  1   
  7   4   7  2   
  8   5   8  1   
  9   5  26  1   
 10   5  27  1   
 11   6   9  1   
 12   7  10  1   
 13   7  28  1   
 14   8  11  2   
 15   8  12  am  
 16   9  10  2   
 17   9  29  1   
 18  10  30  1   
 19  12  13  1   
 20  12  14  1   
 21  13  15  1   
 22  13  31  1   
 23  13  32  1   
 24  14  16  1   
 25  14  33  1   
 26  14  34  1   
 27  15  17  1   
 28  15  35  1   
 29  15  36  1   
 30  16  17  1   
 31  16  37  1   
 32  16  38  1   
 33  17  18  1   
 34  17  39  1   
 35  18  19  1   
 36  18  40  1   
 37  18  41  1   
 38  19  20  ar  
 39  19  21  ar  
 40  20  22  ar  
 41  20  42  1   
 42  21  23  ar  
 43  21  43  1   
 44  22  24  ar  
 45  22  44  1   
 46  23  24  ar  
 47  23  45  1   
 48  24  46  1   
@<TRIPOS>SUBSTRUCTURE
  1 ****  14 GROUP 4 **** **** 0

# MOE 2024.06 (io_trps.svl 2023.06)
