@<TRIPOS>MOLECULE
3-Cyclohexyl-1-methyl-1-(3-p-tolyl-[1,2,4]oxadiazol-5-ylmethyl)-urea
48 50 1 0 0 
SMALL
USER_CHARGES


@<TRIPOS>ATOM
  1 O        0.2810     1.6130     1.9930 O.2   1 <1>  -0.5700 
  2 C        0.4170     2.3450     1.0310 C.2   1 <1>   0.6900 
  3 N        1.4310     3.2610     0.9930 N.am  1 <1>  -0.6600 
  4 N       -0.4260     2.2540    -0.0240 N.am  1 <1>  -0.7300 
  5 C        2.5720     3.1260     1.9560 C.3   1 <1>   0.3200 
  6 C        1.3880     4.4980     0.1600 C.3   1 <1>   0.0600 
  7 C       -1.5240     1.2860    -0.1540 C.3   1 <1>   0.2200 
  8 C        3.9340     3.3560     1.3110 C.2   1 <1>   0.2980 
  9 C       -1.1080     0.1950    -1.1460 C.3   1 <1>  -0.1600 
 10 C       -2.7790     2.0230    -0.6300 C.3   1 <1>  -0.1600 
 11 O        4.3160     4.5870     1.0890 O.3   1 <1>  -0.0190 
 12 N        4.7670     2.4610     0.9650 N.2   1 <1>  -0.5650 
 13 C       -2.2600    -0.7880    -1.4050 C.3   1 <1>  -0.1600 
 14 C       -3.9340     1.0440    -0.8880 C.3   1 <1>  -0.1600 
 15 N        5.4850     4.4650     0.5460 N.2   1 <1>  -0.4100 
 16 C        5.7580     3.2100     0.4690 C.2   1 <1>   0.4620 
 17 C       -3.5210    -0.0530    -1.8790 C.3   1 <1>  -0.1600 
 18 C        6.9770     2.6380    -0.0800 C.ar  1 <1>   0.0540 
 19 C        7.1830     1.2580    -0.1330 C.ar  1 <1>  -0.1500 
 20 C        7.9960     3.4490    -0.5810 C.ar  1 <1>  -0.1500 
 21 C        8.3440     0.7170    -0.6560 C.ar  1 <1>  -0.1500 
 22 C        9.1580     2.9140    -1.1050 C.ar  1 <1>  -0.1500 
 23 C        9.3410     1.5420    -1.1450 C.ar  1 <1>  -0.1430 
 24 C       10.6150     0.9520    -1.7210 C.3   1 <1>  -0.0970 
 25 H       -0.1530     2.7290    -0.8780 H     1 <1>   0.3700 
 26 H        2.5780     2.1370     2.3800 H     1 <1>   0.0800 
 27 H        2.4380     3.8250     2.7610 H     1 <1>   0.0800 
 28 H        0.3910     4.6820    -0.2020 H     1 <1>   0.0800 
 29 H        2.0560     4.3950    -0.6780 H     1 <1>   0.0800 
 30 H        1.6900     5.3470     0.7490 H     1 <1>   0.0800 
 31 H       -1.7260     0.8330     0.8040 H     1 <1>   0.0800 
 32 H       -0.2660    -0.3420    -0.7470 H     1 <1>   0.0800 
 33 H       -0.8170     0.6460    -2.0780 H     1 <1>   0.0800 
 34 H       -2.5620     2.5540    -1.5400 H     1 <1>   0.0800 
 35 H       -3.0780     2.7350     0.1190 H     1 <1>   0.0800 
 36 H       -2.4800    -1.3230    -0.4960 H     1 <1>   0.0800 
 37 H       -1.9600    -1.5080    -2.1460 H     1 <1>   0.0800 
 38 H       -4.7830     1.5800    -1.2750 H     1 <1>   0.0800 
 39 H       -4.2290     0.5890     0.0430 H     1 <1>   0.0800 
 40 H       -4.3270    -0.7570    -1.9930 H     1 <1>   0.0800 
 41 H       -3.3340     0.3900    -2.8430 H     1 <1>   0.0800 
 42 H        6.4220     0.5960     0.2410 H     1 <1>   0.1500 
 43 H        7.8770     4.5180    -0.5600 H     1 <1>   0.1500 
 44 H        8.4670    -0.3520    -0.6810 H     1 <1>   0.1500 
 45 H        9.9220     3.5710    -1.4840 H     1 <1>   0.1500 
 46 H       10.4890     0.7730    -2.7730 H     1 <1>   0.0800 
 47 H       10.8510     0.0220    -1.2350 H     1 <1>   0.0800 
 48 H       11.4410     1.6260    -1.5790 H     1 <1>   0.0800 
@<TRIPOS>BOND
  1   1   2  2   
  2   2   3  am  
  3   2   4  am  
  4   3   5  1   
  5   3   6  1   
  6   4   7  1   
  7   4  25  1   
  8   5   8  1   
  9   5  26  1   
 10   5  27  1   
 11   6  28  1   
 12   6  29  1   
 13   6  30  1   
 14   7   9  1   
 15   7  10  1   
 16   7  31  1   
 17   8  11  1   
 18   8  12  2   
 19   9  13  1   
 20   9  32  1   
 21   9  33  1   
 22  10  14  1   
 23  10  34  1   
 24  10  35  1   
 25  11  15  1   
 26  12  16  1   
 27  13  17  1   
 28  13  36  1   
 29  13  37  1   
 30  14  17  1   
 31  14  38  1   
 32  14  39  1   
 33  15  16  2   
 34  16  18  1   
 35  17  40  1   
 36  17  41  1   
 37  18  19  ar  
 38  18  20  ar  
 39  19  21  ar  
 40  19  42  1   
 41  20  22  ar  
 42  20  43  1   
 43  21  23  ar  
 44  21  44  1   
 45  22  23  ar  
 46  22  45  1   
 47  23  24  1   
 48  24  46  1   
 49  24  47  1   
 50  24  48  1   
@<TRIPOS>SUBSTRUCTURE
  1 ****  12 GROUP 4 **** **** 0

# MOE 2024.06 (io_trps.svl 2023.06)
