@<TRIPOS>MOLECULE
2-Cyclohexyl-N-isopropyl-N-[3-(4-methoxy-phenyl)-[1,2,4]oxadiazol-5-ylmethyl]-ac
56 58 1 0 0 
SMALL
USER_CHARGES


@<TRIPOS>ATOM
  1 O        0.2590     0.3580    -2.1700 O.2   1 <1>  -0.5700 
  2 C        0.3430     1.4990    -1.7820 C.2   1 <1>   0.5690 
  3 N        1.4870     2.2320    -1.9910 N.am  1 <1>  -0.6600 
  4 C       -0.8760     2.0600    -1.0540 C.3   1 <1>  -0.0990 
  5 C        1.5480     3.7220    -1.8730 C.3   1 <1>   0.2200 
  6 C        2.7440     1.4870    -2.3720 C.3   1 <1>   0.3200 
  7 C       -1.2950     1.2040     0.1590 C.3   1 <1>  -0.0800 
  8 C        2.4130     4.3600    -2.9620 C.3   1 <1>  -0.2400 
  9 C        2.0300     4.1350    -0.4820 C.3   1 <1>  -0.2400 
 10 C        3.7840     1.4920    -1.2630 C.2   1 <1>   0.2980 
 11 C       -2.5940     1.7530     0.7760 C.3   1 <1>  -0.1600 
 12 C       -0.1810     1.1410     1.2220 C.3   1 <1>  -0.1600 
 13 O        3.4710     0.9580    -0.1120 O.3   1 <1>  -0.0190 
 14 N        4.9560     1.9780    -1.3380 N.2   1 <1>  -0.5650 
 15 C       -3.0280     0.9290     1.9960 C.3   1 <1>  -0.1600 
 16 C       -0.6150     0.3170     2.4410 C.3   1 <1>  -0.1600 
 17 N        4.5330     1.1250     0.6120 N.2   1 <1>  -0.4100 
 18 C        5.4140     1.7260    -0.1070 C.2   1 <1>   0.4620 
 19 C       -1.9140     0.8640     3.0470 C.3   1 <1>  -0.1600 
 20 C        6.7470     2.1070     0.3280 C.ar  1 <1>   0.0540 
 21 C        7.6370     2.7690    -0.5210 C.ar  1 <1>  -0.1500 
 22 C        7.1960     1.8250     1.6210 C.ar  1 <1>  -0.1500 
 23 C        8.9030     3.1310    -0.1020 C.ar  1 <1>  -0.1500 
 24 C        8.4620     2.1830     2.0490 C.ar  1 <1>  -0.1500 
 25 C        9.3280     2.8430     1.1830 C.ar  1 <1>   0.0820 
 26 O       10.5830     3.2300     1.5170 O.3   1 <1>  -0.3620 
 27 C       11.1120     2.9810     2.8000 C.3   1 <1>   0.0400 
 28 H       -1.6850     2.0860    -1.7610 H     1 <1>   0.0800 
 29 H       -0.7110     3.0600    -0.7120 H     1 <1>   0.0800 
 30 H        0.5550     4.1130    -2.0160 H     1 <1>   0.0800 
 31 H        3.1680     1.9110    -3.2620 H     1 <1>   0.0800 
 32 H        2.5270     0.4600    -2.6000 H     1 <1>   0.0800 
 33 H       -1.4880     0.2010    -0.1870 H     1 <1>   0.0800 
 34 H        3.4550     4.1350    -2.8180 H     1 <1>   0.0800 
 35 H        2.3030     5.4290    -2.9250 H     1 <1>   0.0800 
 36 H        2.0970     4.0270    -3.9340 H     1 <1>   0.0800 
 37 H        3.0720     3.9140    -0.3480 H     1 <1>   0.0800 
 38 H        1.4640     3.6340     0.2800 H     1 <1>   0.0800 
 39 H        1.9010     5.1940    -0.3550 H     1 <1>   0.0800 
 40 H       -3.3810     1.7340     0.0420 H     1 <1>   0.0800 
 41 H       -2.4470     2.7750     1.0790 H     1 <1>   0.0800 
 42 H        0.0680     2.1360     1.5450 H     1 <1>   0.0800 
 43 H        0.7050     0.6960     0.8020 H     1 <1>   0.0800 
 44 H       -3.2770    -0.0700     1.6790 H     1 <1>   0.0800 
 45 H       -3.9100     1.3650     2.4320 H     1 <1>   0.0800 
 46 H        0.1650     0.3330     3.1820 H     1 <1>   0.0800 
 47 H       -0.7640    -0.7070     2.1410 H     1 <1>   0.0800 
 48 H       -2.2230     0.2340     3.8630 H     1 <1>   0.0800 
 49 H       -1.7360     1.8500     3.4400 H     1 <1>   0.0800 
 50 H        7.3330     3.0060    -1.5260 H     1 <1>   0.1500 
 51 H        6.5390     1.3150     2.3040 H     1 <1>   0.1500 
 52 H        9.5740     3.6410    -0.7700 H     1 <1>   0.1500 
 53 H        8.7550     1.9420     3.0520 H     1 <1>   0.1500 
 54 H       12.1120     3.3740     2.8300 H     1 <1>   0.0800 
 55 H       11.1310     1.9190     2.9700 H     1 <1>   0.0800 
 56 H       10.5020     3.4790     3.5320 H     1 <1>   0.0800 
@<TRIPOS>BOND
  1   1   2  2   
  2   2   3  am  
  3   2   4  1   
  4   3   5  1   
  5   3   6  1   
  6   4   7  1   
  7   4  28  1   
  8   4  29  1   
  9   5   8  1   
 10   5   9  1   
 11   5  30  1   
 12   6  10  1   
 13   6  31  1   
 14   6  32  1   
 15   7  11  1   
 16   7  12  1   
 17   7  33  1   
 18   8  34  1   
 19   8  35  1   
 20   8  36  1   
 21   9  37  1   
 22   9  38  1   
 23   9  39  1   
 24  10  13  1   
 25  10  14  2   
 26  11  15  1   
 27  11  40  1   
 28  11  41  1   
 29  12  16  1   
 30  12  42  1   
 31  12  43  1   
 32  13  17  1   
 33  14  18  1   
 34  15  19  1   
 35  15  44  1   
 36  15  45  1   
 37  16  19  1   
 38  16  46  1   
 39  16  47  1   
 40  17  18  2   
 41  18  20  1   
 42  19  48  1   
 43  19  49  1   
 44  20  21  ar  
 45  20  22  ar  
 46  21  23  ar  
 47  21  50  1   
 48  22  24  ar  
 49  22  51  1   
 50  23  25  ar  
 51  23  52  1   
 52  24  25  ar  
 53  24  53  1   
 54  25  26  1   
 55  26  27  1   
 56  27  54  1   
 57  27  55  1   
 58  27  56  1   
@<TRIPOS>SUBSTRUCTURE
  1 ****  13 GROUP 4 **** **** 0

# MOE 2024.06 (io_trps.svl 2023.06)
