@<TRIPOS>MOLECULE
Furan-2-carboxylic acid [3-(3,4-dimethoxy-phenyl)-[1,2,4]oxadiazol-5-ylmethyl]-i
48 50 1 0 0 
SMALL
USER_CHARGES


@<TRIPOS>ATOM
  1 O        1.4850     1.3560     1.8700 O.2   1 <1>  -0.5700 
  2 C        1.5380     1.9170     0.7890 C.2   1 <1>   0.7150 
  3 N        2.3770     1.3770    -0.1710 N.am  1 <1>  -0.6600 
  4 C        0.7200     3.1000     0.5990 C.2   1 <1>   0.0550 
  5 C        2.7610     2.1010    -1.4170 C.3   1 <1>   0.2200 
  6 C        2.9390     0.0000     0.0560 C.3   1 <1>   0.3200 
  7 O        0.2400     3.4670    -0.5890 O.3   1 <1>  -0.2800 
  8 C        0.2730     3.9920     1.5280 C.2   1 <1>  -0.1500 
  9 C        2.0140     1.5040    -2.6090 C.3   1 <1>  -0.2400 
 10 C        4.2720     2.0850    -1.6500 C.3   1 <1>  -0.2400 
 11 C        4.3110     0.0090     0.7230 C.2   1 <1>   0.2980 
 12 C       -0.4800     4.5560    -0.4420 C.2   1 <1>  -0.0100 
 13 C       -0.4990     4.9370     0.8520 C.2   1 <1>  -0.1500 
 14 O        4.4730     0.6760     1.8360 O.3   1 <1>  -0.0190 
 15 N        5.3490    -0.5840     0.2890 N.2   1 <1>  -0.5650 
 16 N        5.7230     0.5000     2.1310 N.2   1 <1>  -0.4100 
 17 C        6.2450    -0.2440     1.2220 C.2   1 <1>   0.4620 
 18 C        7.6320    -0.6780     1.1770 C.ar  1 <1>   0.0540 
 19 C        8.1120    -1.5100     0.1630 C.ar  1 <1>  -0.1500 
 20 C        8.5430    -0.2770     2.1520 C.ar  1 <1>  -0.1500 
 21 C        9.4370    -1.9340     0.1080 C.ar  1 <1>   0.0830 
 22 C        9.8630    -0.6800     2.1130 C.ar  1 <1>  -0.1500 
 23 O        9.8660    -2.7670    -0.8860 O.3   1 <1>  -0.3630 
 24 C       10.3330    -1.5000     1.1020 C.ar  1 <1>   0.0830 
 25 C        8.9830    -3.3570    -1.8160 C.3   1 <1>   0.0400 
 26 O       11.6600    -1.7990     1.1980 O.3   1 <1>  -0.3630 
 27 C       12.4100    -2.3380     0.1330 C.3   1 <1>   0.0400 
 28 H        2.4820     3.1360    -1.3250 H     1 <1>   0.0800 
 29 H        3.0170    -0.5160    -0.8820 H     1 <1>   0.0800 
 30 H        2.2690    -0.5720     0.6730 H     1 <1>   0.0800 
 31 H        0.4680     3.9770     2.5860 H     1 <1>   0.1500 
 32 H        2.3250     0.4940    -2.8010 H     1 <1>   0.0800 
 33 H        2.2110     2.0890    -3.4890 H     1 <1>   0.0800 
 34 H        0.9540     1.5220    -2.4280 H     1 <1>   0.0800 
 35 H        4.6260     1.1000    -1.8930 H     1 <1>   0.0800 
 36 H        4.7870     2.4500    -0.7790 H     1 <1>   0.0800 
 37 H        4.5140     2.7330    -2.4740 H     1 <1>   0.0800 
 38 H       -0.9450     4.9970    -1.3070 H     1 <1>   0.1500 
 39 H       -0.9950     5.7810     1.2980 H     1 <1>   0.1500 
 40 H        7.4120    -1.8190    -0.5870 H     1 <1>   0.1500 
 41 H        8.2150     0.3620     2.9550 H     1 <1>   0.1500 
 42 H       10.5470    -0.3550     2.8760 H     1 <1>   0.1500 
 43 H        8.5380    -2.5830    -2.4160 H     1 <1>   0.0800 
 44 H        8.2330    -3.9140    -1.2820 H     1 <1>   0.0800 
 45 H        9.5520    -4.0200    -2.4420 H     1 <1>   0.0800 
 46 H       13.4490    -2.2980     0.4010 H     1 <1>   0.0800 
 47 H       12.2340    -1.7500    -0.7500 H     1 <1>   0.0800 
 48 H       12.1110    -3.3600    -0.0190 H     1 <1>   0.0800 
@<TRIPOS>BOND
  1   1   2  2   
  2   2   3  am  
  3   2   4  1   
  4   3   5  1   
  5   3   6  1   
  6   4   7  1   
  7   4   8  2   
  8   5   9  1   
  9   5  10  1   
 10   5  28  1   
 11   6  11  1   
 12   6  29  1   
 13   6  30  1   
 14   7  12  1   
 15   8  13  1   
 16   8  31  1   
 17   9  32  1   
 18   9  33  1   
 19   9  34  1   
 20  10  35  1   
 21  10  36  1   
 22  10  37  1   
 23  11  14  1   
 24  11  15  2   
 25  12  13  2   
 26  12  38  1   
 27  13  39  1   
 28  14  16  1   
 29  15  17  1   
 30  16  17  2   
 31  17  18  1   
 32  18  19  ar  
 33  18  20  ar  
 34  19  21  ar  
 35  19  40  1   
 36  20  22  ar  
 37  20  41  1   
 38  21  23  1   
 39  21  24  ar  
 40  22  24  ar  
 41  22  42  1   
 42  23  25  1   
 43  24  26  1   
 44  25  43  1   
 45  25  44  1   
 46  25  45  1   
 47  26  27  1   
 48  27  46  1   
 49  27  47  1   
 50  27  48  1   
@<TRIPOS>SUBSTRUCTURE
  1 ****  11 GROUP 4 **** **** 0

# MOE 2024.06 (io_trps.svl 2023.06)
