@<TRIPOS>MOLECULE
NONAME
44 48 1 0 0 
SMALL
USER_CHARGES


@<TRIPOS>ATOM
  1 O        0.7260     0.5640    -0.3450 O.2   1 <1>  -0.5700 
  2 C        1.1960    -0.5250    -0.1720 C.2   1 <1>   0.4480 
  3 C        0.4870    -1.8320    -0.5350 C.3   1 <1>   0.0610 
  4 C        2.5940    -0.7510     0.4070 C.3   1 <1>   0.0610 
  5 C        0.4450    -2.6810     0.7520 C.3   1 <1>   0.1100 
  6 C        1.4050    -2.5240    -1.5640 C.3   1 <1>   0.1100 
  7 C       -0.9250    -1.6460    -1.1500 C.3   1 <1>  -0.1600 
  8 C        2.4280    -1.6630     1.6390 C.3   1 <1>   0.1100 
  9 C        3.3910    -1.5100    -0.6720 C.3   1 <1>   0.1100 
 10 C        3.3150     0.5540     0.7950 C.3   1 <1>  -0.2400 
 11 N        1.8110    -2.9520     1.2430 N.3   1 <1>  -0.8100 
 12 N        2.7320    -2.8030    -0.9780 N.3   1 <1>  -0.8100 
 13 C       -1.9980    -1.1150    -0.1840 C.3   1 <1>  -0.2400 
 14 C        2.6760    -3.6790     0.2470 C.3   1 <1>   0.7440 
 15 C        4.1050    -4.0700     0.8140 C.2   1 <1>   0.5690 
 16 C        2.1650    -5.1200    -0.0620 C.ar  1 <1>  -0.1440 
 17 O        4.9830    -3.3410     1.2300 O.2   1 <1>  -0.5700 
 18 N        4.2670    -5.4100     0.7890 N.am  1 <1>  -0.5470 
 19 C        3.1510    -6.0350     0.2840 C.ar  1 <1>   0.1170 
 20 C        0.9770    -5.6240    -0.5870 C.ar  1 <1>  -0.1500 
 21 C        2.9890    -7.4010     0.1250 C.ar  1 <1>  -0.1500 
 22 C        0.8010    -6.9900    -0.7520 C.ar  1 <1>  -0.1500 
 23 C        1.8030    -7.8790    -0.3980 C.ar  1 <1>  -0.1500 
 24 H       -0.0860    -3.5990     0.6020 H     1 <1>   0.0800 
 25 H       -0.0920    -2.1460     1.5170 H     1 <1>   0.0800 
 26 H        0.9690    -3.4290    -1.9360 H     1 <1>   0.0800 
 27 H        1.5280    -1.8790    -2.4180 H     1 <1>   0.0800 
 28 H       -1.2680    -2.5880    -1.5420 H     1 <1>   0.0800 
 29 H       -0.8500    -0.9640    -1.9810 H     1 <1>   0.0800 
 30 H        3.3770    -1.8280     2.1150 H     1 <1>   0.0800 
 31 H        1.8000    -1.1750     2.3650 H     1 <1>   0.0800 
 32 H        4.4050    -1.6670    -0.3510 H     1 <1>   0.0800 
 33 H        3.4410    -0.9140    -1.5680 H     1 <1>   0.0800 
 34 H        2.7470     1.0870     1.5370 H     1 <1>   0.0800 
 35 H        3.4240     1.1900    -0.0660 H     1 <1>   0.0800 
 36 H        4.2920     0.3430     1.1930 H     1 <1>   0.0800 
 37 H       -2.2010    -1.8210     0.6010 H     1 <1>   0.0800 
 38 H       -2.9140    -0.9430    -0.7210 H     1 <1>   0.0800 
 39 H       -1.6920    -0.1830     0.2570 H     1 <1>   0.0800 
 40 H        5.1220    -5.8560     1.1160 H     1 <1>   0.3700 
 41 H        0.1660    -4.9890    -0.8790 H     1 <1>   0.1500 
 42 H        3.7770    -8.0760     0.4050 H     1 <1>   0.1500 
 43 H       -0.1220    -7.3650    -1.1590 H     1 <1>   0.1500 
 44 H        1.6560    -8.9370    -0.5300 H     1 <1>   0.1500 
@<TRIPOS>BOND
  1   1   2  2   
  2   2   3  1   
  3   2   4  1   
  4   3   5  1   
  5   3   6  1   
  6   3   7  1   
  7   4   8  1   
  8   4   9  1   
  9   4  10  1   
 10   5  11  1   
 11   5  24  1   
 12   5  25  1   
 13   6  12  1   
 14   6  26  1   
 15   6  27  1   
 16   7  13  1   
 17   7  28  1   
 18   7  29  1   
 19   8  11  1   
 20   8  30  1   
 21   8  31  1   
 22   9  12  1   
 23   9  32  1   
 24   9  33  1   
 25  10  34  1   
 26  10  35  1   
 27  10  36  1   
 28  11  14  1   
 29  12  14  1   
 30  13  37  1   
 31  13  38  1   
 32  13  39  1   
 33  14  15  1   
 34  14  16  1   
 35  15  17  2   
 36  15  18  am  
 37  16  19  ar  
 38  16  20  ar  
 39  18  19  1   
 40  18  40  1   
 41  19  21  ar  
 42  20  22  ar  
 43  20  41  1   
 44  21  23  ar  
 45  21  42  1   
 46  22  23  ar  
 47  22  43  1   
 48  23  44  1   
@<TRIPOS>SUBSTRUCTURE
  1 ****  14 GROUP 4 **** **** 0

# MOE 2024.06 (io_trps.svl 2023.06)
