@<TRIPOS>MOLECULE
5-Chloro-1,2,3,4-tetrahydro-quinolin-8-ol
22 23 1 0 0 
SMALL
USER_CHARGES


@<TRIPOS>ATOM
  1 CL      -0.0940     0.0630     0.3270 Cl    1 <1>  -0.1770 
  2 C       -0.0280    -1.6740     0.1160 C.ar  1 <1>   0.1770 
  3 C        1.1950    -2.3240     0.0150 C.ar  1 <1>  -0.1440 
  4 C       -1.2290    -2.3590     0.0660 C.ar  1 <1>  -0.1500 
  5 C        1.2050    -3.7100    -0.1440 C.ar  1 <1>   0.1000 
  6 C        2.5030    -1.5390     0.1060 C.3   1 <1>  -0.0160 
  7 C       -1.2210    -3.7360    -0.0790 C.ar  1 <1>  -0.1500 
  8 N        2.4080    -4.4070    -0.2720 N.pl3 1 <1>  -0.8690 
  9 C       -0.0130    -4.4040    -0.1750 C.ar  1 <1>   0.0830 
 10 C        3.7160    -2.3640    -0.3480 C.3   1 <1>  -0.1600 
 11 C        3.6560    -3.7860     0.2060 C.3   1 <1>   0.2090 
 12 O       -0.0230    -5.7530    -0.2960 O.3   1 <1>  -0.5320 
 13 H       -2.1540    -1.8170     0.1440 H     1 <1>   0.1500 
 14 H        2.6440    -1.2410     1.1300 H     1 <1>   0.0800 
 15 H        2.4450    -0.6500    -0.4960 H     1 <1>   0.0800 
 16 H       -2.1510    -4.2730    -0.1120 H     1 <1>   0.1500 
 17 H        2.3010    -5.4100    -0.0730 H     1 <1>   0.4000 
 18 H        4.6240    -1.8850    -0.0290 H     1 <1>   0.0800 
 19 H        3.7280    -2.4200    -1.4220 H     1 <1>   0.0800 
 20 H        4.4980    -4.3560    -0.1470 H     1 <1>   0.0800 
 21 H        3.6640    -3.7740     1.2830 H     1 <1>   0.0800 
 22 H       -0.9230    -6.1120    -0.3700 H     1 <1>   0.4500 
@<TRIPOS>BOND
  1   1   2  1   
  2   2   3  ar  
  3   2   4  ar  
  4   3   5  ar  
  5   3   6  1   
  6   4   7  ar  
  7   4  13  1   
  8   5   8  1   
  9   5   9  ar  
 10   6  10  1   
 11   6  14  1   
 12   6  15  1   
 13   7   9  ar  
 14   7  16  1   
 15   8  11  1   
 16   8  17  1   
 17   9  12  1   
 18  10  11  1   
 19  10  18  1   
 20  10  19  1   
 21  11  20  1   
 22  11  21  1   
 23  12  22  1   
@<TRIPOS>SUBSTRUCTURE
  1 ****   3 GROUP 4 **** **** 0

# MOE 2024.06 (io_trps.svl 2023.06)
