@<TRIPOS>MOLECULE
1-(2,3-Dimethyl-phenyl)-5-oxo-pyrrolidine-3-carboxylic acid (5-ethyl-[1,3,4]thia
44 46 1 0 0 
SMALL
USER_CHARGES


@<TRIPOS>ATOM
  1 S       -1.6490     1.0020     1.4160 S.3   1 <1>  -0.0800 
  2 C       -2.2230    -0.0460     0.1610 C.2   1 <1>   0.4420 
  3 C       -0.1870     1.1760     0.5060 C.2   1 <1>   0.1980 
  4 N       -1.3640    -0.1900    -0.7800 N.2   1 <1>  -0.3380 
  5 N       -3.4860    -0.5760     0.3300 N.am  1 <1>  -0.4940 
  6 N       -0.2070     0.5090    -0.5770 N.2   1 <1>  -0.3380 
  7 C        0.8960     2.0700     1.0880 C.3   1 <1>   0.0200 
  8 C       -4.1910    -1.4000    -0.5020 C.2   1 <1>   0.5690 
  9 C        2.1450     2.1540     0.2000 C.3   1 <1>  -0.2400 
 10 O       -3.7880    -1.7660    -1.5740 O.2   1 <1>  -0.5700 
 11 C       -5.5670    -1.8580    -0.0420 C.3   1 <1>  -0.0190 
 12 C       -5.9470    -3.2650    -0.5280 C.3   1 <1>   0.1400 
 13 C       -6.7030    -0.9540    -0.5440 C.3   1 <1>  -0.0990 
 14 N       -7.4110    -3.2050    -0.6820 N.am  1 <1>  -0.4770 
 15 C       -7.8480    -1.9150    -0.7060 C.2   1 <1>   0.5690 
 16 C       -8.1610    -4.3830    -0.8450 C.ar  1 <1>   0.1170 
 17 O       -8.9860    -1.5320    -0.8170 O.2   1 <1>  -0.5700 
 18 C       -9.1300    -4.7990     0.0770 C.ar  1 <1>  -0.1440 
 19 C       -7.9130    -5.1640    -1.9680 C.ar  1 <1>  -0.1500 
 20 C       -9.8390    -5.9770    -0.1530 C.ar  1 <1>  -0.1440 
 21 C       -9.4090    -3.9550     1.3220 C.3   1 <1>  -0.0970 
 22 C       -8.6060    -6.3360    -2.1850 C.ar  1 <1>  -0.1500 
 23 C       -9.5670    -6.7380    -1.2790 C.ar  1 <1>  -0.1500 
 24 C      -10.9280    -6.4690     0.7920 C.3   1 <1>  -0.0970 
 25 H       -3.9440    -0.3010     1.1930 H     1 <1>   0.3700 
 26 H        1.1760     1.6880     2.0540 H     1 <1>   0.0800 
 27 H        0.4930     3.0570     1.2230 H     1 <1>   0.0800 
 28 H        2.5720     1.1750     0.0660 H     1 <1>   0.0800 
 29 H        2.8820     2.7950     0.6510 H     1 <1>   0.0800 
 30 H        1.8870     2.5490    -0.7670 H     1 <1>   0.0800 
 31 H       -5.5910    -1.8780     1.0320 H     1 <1>   0.0800 
 32 H       -5.6690    -4.0220     0.1860 H     1 <1>   0.0800 
 33 H       -5.5070    -3.4910    -1.4850 H     1 <1>   0.0800 
 34 H       -6.4750    -0.5310    -1.5060 H     1 <1>   0.0800 
 35 H       -6.9480    -0.1760     0.1550 H     1 <1>   0.0800 
 36 H       -7.1750    -4.8450    -2.6810 H     1 <1>   0.1500 
 37 H       -8.5220    -3.4510     1.6550 H     1 <1>   0.0800 
 38 H       -9.7550    -4.5540     2.1430 H     1 <1>   0.0800 
 39 H      -10.1560    -3.2160     1.0910 H     1 <1>   0.0800 
 40 H       -8.4040    -6.9310    -3.0580 H     1 <1>   0.1500 
 41 H      -10.1060    -7.6510    -1.4610 H     1 <1>   0.1500 
 42 H      -11.6280    -5.6780     0.9950 H     1 <1>   0.0800 
 43 H      -10.4910    -6.8020     1.7160 H     1 <1>   0.0800 
 44 H      -11.4730    -7.2890     0.3610 H     1 <1>   0.0800 
@<TRIPOS>BOND
  1   1   2  1   
  2   1   3  1   
  3   2   4  2   
  4   2   5  1   
  5   3   6  2   
  6   3   7  1   
  7   4   6  1   
  8   5   8  am  
  9   5  25  1   
 10   7   9  1   
 11   7  26  1   
 12   7  27  1   
 13   8  10  2   
 14   8  11  1   
 15   9  28  1   
 16   9  29  1   
 17   9  30  1   
 18  11  12  1   
 19  11  13  1   
 20  11  31  1   
 21  12  14  1   
 22  12  32  1   
 23  12  33  1   
 24  13  15  1   
 25  13  34  1   
 26  13  35  1   
 27  14  15  am  
 28  14  16  1   
 29  15  17  2   
 30  16  18  ar  
 31  16  19  ar  
 32  18  20  ar  
 33  18  21  1   
 34  19  22  ar  
 35  19  36  1   
 36  20  23  ar  
 37  20  24  1   
 38  21  37  1   
 39  21  38  1   
 40  21  39  1   
 41  22  23  ar  
 42  22  40  1   
 43  23  41  1   
 44  24  42  1   
 45  24  43  1   
 46  24  44  1   
@<TRIPOS>SUBSTRUCTURE
  1 ****  11 GROUP 4 **** **** 0

# MOE 2024.06 (io_trps.svl 2023.06)
