@<TRIPOS>MOLECULE
5-(2,5-Dimethoxy-phenyl)-1-methyl-2-methylsulfanyl-5,8-dihydro-1H,6H-pyrido[2,3-
44 46 1 0 0 
SMALL
USER_CHARGES


@<TRIPOS>ATOM
  1 S        0.5570     0.1870     1.2910 S.3   1 <1>  -0.3710 
  2 C        2.0870     1.0790     1.0430 C.2   1 <1>   0.6410 
  3 C       -0.0300     0.7140     2.9650 C.3   1 <1>  -0.0100 
  4 N        2.4670     1.8420     1.9960 N.2   1 <1>  -0.6610 
  5 N        2.7420     0.8790    -0.1540 N.pl3 1 <1>  -0.5190 
  6 C        3.6210     2.5340     1.8050 C.2   1 <1>   0.7670 
  7 C        3.8900     1.6010    -0.3810 C.2   1 <1>   0.2090 
  8 C        2.2020    -0.1090    -1.1400 C.3   1 <1>   0.1290 
  9 O        4.0160     3.2260     2.7360 O.2   1 <1>  -0.5700 
 10 C        4.3380     2.4380     0.5930 C.2   1 <1>  -0.1240 
 11 N        4.5680     1.4920    -1.5760 N.am  1 <1>  -0.5390 
 12 C        5.5860     3.2930     0.3780 C.3   1 <1>   0.2020 
 13 C        5.7880     2.0320    -1.8210 C.2   1 <1>   0.5690 
 14 C        5.2020     4.7240    -0.0160 C.ar  1 <1>  -0.1440 
 15 C        6.5310     2.6860    -0.6750 C.3   1 <1>  -0.0990 
 16 O        6.2850     1.9570    -2.9120 O.2   1 <1>  -0.5700 
 17 C        5.7920     5.8190     0.6100 C.ar  1 <1>   0.0830 
 18 C        4.2600     4.9630    -1.0090 C.ar  1 <1>  -0.1500 
 19 O        6.7170     5.6360     1.5790 O.3   1 <1>  -0.3630 
 20 C        5.4540     7.1140     0.2440 C.ar  1 <1>  -0.1500 
 21 C        3.9090     6.2530    -1.3750 C.ar  1 <1>   0.0830 
 22 C        6.2930     5.9290     2.8930 C.3   1 <1>   0.0400 
 23 C        4.5130     7.3350    -0.7440 C.ar  1 <1>  -0.1500 
 24 O        2.9750     6.3720    -2.3540 O.3   1 <1>  -0.3620 
 25 C        2.5580     7.6400    -2.8100 C.3   1 <1>   0.0400 
 26 H       -0.9530     0.2030     3.1680 H     1 <1>   0.0800 
 27 H       -0.1740     1.7800     2.9440 H     1 <1>   0.0800 
 28 H        0.7270     0.4460     3.6800 H     1 <1>   0.0800 
 29 H        2.8910    -0.2930    -1.9420 H     1 <1>   0.0800 
 30 H        2.0180    -1.0500    -0.6500 H     1 <1>   0.0800 
 31 H        1.2790     0.2600    -1.5510 H     1 <1>   0.0800 
 32 H        4.1380     1.0360    -2.3780 H     1 <1>   0.3700 
 33 H        6.1320     3.3100     1.3040 H     1 <1>   0.0800 
 34 H        7.1330     1.9280    -0.2100 H     1 <1>   0.0800 
 35 H        7.1920     3.4420    -1.0580 H     1 <1>   0.0800 
 36 H        3.7760     4.1550    -1.5240 H     1 <1>   0.1500 
 37 H        5.9330     7.9430     0.7310 H     1 <1>   0.1500 
 38 H        7.0750     5.6410     3.5710 H     1 <1>   0.0800 
 39 H        5.3990     5.3690     3.1050 H     1 <1>   0.0800 
 40 H        6.1020     6.9830     2.9750 H     1 <1>   0.0800 
 41 H        4.2680     8.3460    -1.0070 H     1 <1>   0.1500 
 42 H        1.8250     7.4920    -3.5820 H     1 <1>   0.0800 
 43 H        3.4080     8.1630    -3.2100 H     1 <1>   0.0800 
 44 H        2.1210     8.1800    -1.9890 H     1 <1>   0.0800 
@<TRIPOS>BOND
  1   1   2  1   
  2   1   3  1   
  3   2   4  2   
  4   2   5  1   
  5   3  26  1   
  6   3  27  1   
  7   3  28  1   
  8   4   6  1   
  9   5   7  1   
 10   5   8  1   
 11   6   9  2   
 12   6  10  1   
 13   7  10  2   
 14   7  11  1   
 15   8  29  1   
 16   8  30  1   
 17   8  31  1   
 18  10  12  1   
 19  11  13  am  
 20  11  32  1   
 21  12  14  1   
 22  12  15  1   
 23  12  33  1   
 24  13  15  1   
 25  13  16  2   
 26  14  17  ar  
 27  14  18  ar  
 28  15  34  1   
 29  15  35  1   
 30  17  19  1   
 31  17  20  ar  
 32  18  21  ar  
 33  18  36  1   
 34  19  22  1   
 35  20  23  ar  
 36  20  37  1   
 37  21  23  ar  
 38  21  24  1   
 39  22  38  1   
 40  22  39  1   
 41  22  40  1   
 42  23  41  1   
 43  24  25  1   
 44  25  42  1   
 45  25  43  1   
 46  25  44  1   
@<TRIPOS>SUBSTRUCTURE
  1 ****  10 GROUP 4 **** **** 0

# MOE 2024.06 (io_trps.svl 2023.06)
