@<TRIPOS>MOLECULE
2-Methylsulfanyl-5-(2,3,4-trimethoxy-phenyl)-5,8-dihydro-3H,6H-pyrido[2,3-d]pyri
45 47 1 0 0 
SMALL
USER_CHARGES


@<TRIPOS>ATOM
  1 S        0.0730     0.3880    -0.2360 S.3   1 <1>  -0.3710 
  2 C        1.6340     1.2280    -0.2120 C.2   1 <1>   0.6410 
  3 C       -0.9970     1.4460    -1.3130 C.3   1 <1>  -0.0100 
  4 N        2.5820     0.6050     0.5230 N.pl3 1 <1>  -0.5500 
  5 N        1.7830     2.3200    -0.8540 N.2   1 <1>  -0.6610 
  6 C        3.8130     1.1610     0.6480 C.2   1 <1>   0.2090 
  7 C        3.0200     2.8990    -0.7840 C.2   1 <1>   0.7670 
  8 N        4.7770     0.4820     1.3450 N.am  1 <1>  -0.5390 
  9 C        4.0450     2.3530     0.0360 C.2   1 <1>  -0.1240 
 10 O        3.1990     3.8860    -1.4850 O.2   1 <1>  -0.5700 
 11 C        6.0200     0.9680     1.5740 C.2   1 <1>   0.5690 
 12 C        5.4130     3.0370     0.1800 C.3   1 <1>   0.2020 
 13 O        6.8850     0.2620     2.0160 O.2   1 <1>  -0.5700 
 14 C        6.2840     2.4320     1.3030 C.3   1 <1>  -0.0990 
 15 C        5.3290     4.5460     0.4480 C.ar  1 <1>  -0.1430 
 16 C        6.2580     5.4200    -0.1130 C.ar  1 <1>   0.0830 
 17 C        4.3350     5.0550     1.2750 C.ar  1 <1>  -0.1500 
 18 O        7.2610     4.8740    -0.8600 O.3   1 <1>  -0.3630 
 19 C        6.1420     6.7990     0.1040 C.ar  1 <1>   0.0830 
 20 C        4.2390     6.4130     1.5190 C.ar  1 <1>  -0.1500 
 21 C        8.5920     5.2850    -0.6240 C.3   1 <1>   0.0400 
 22 O        6.9940     7.6710    -0.5000 O.3   1 <1>  -0.3630 
 23 C        5.1360     7.2980     0.9310 C.ar  1 <1>   0.0830 
 24 C        6.5230     8.2020    -1.7160 C.3   1 <1>   0.0400 
 25 O        5.0690     8.6490     1.1280 O.3   1 <1>  -0.3630 
 26 C        4.0430     9.2340     1.8980 C.3   1 <1>   0.0400 
 27 H       -1.9670     0.9870    -1.3700 H     1 <1>   0.0800 
 28 H       -0.5370     1.5010    -2.2840 H     1 <1>   0.0800 
 29 H       -1.0560     2.4220    -0.8640 H     1 <1>   0.0800 
 30 H        2.3190    -0.2720     0.9720 H     1 <1>   0.4000 
 31 H        4.6450    -0.4890     1.6260 H     1 <1>   0.3700 
 32 H        5.9130     2.8660    -0.7570 H     1 <1>   0.0800 
 33 H        7.3220     2.5700     1.0620 H     1 <1>   0.0800 
 34 H        6.0960     2.9530     2.2240 H     1 <1>   0.0800 
 35 H        3.6200     4.3990     1.7380 H     1 <1>   0.1500 
 36 H        3.4540     6.7580     2.1630 H     1 <1>   0.1500 
 37 H        8.7980     6.1590    -1.2150 H     1 <1>   0.0800 
 38 H        9.2480     4.4860    -0.9200 H     1 <1>   0.0800 
 39 H        8.7180     5.4990     0.4230 H     1 <1>   0.0800 
 40 H        7.2790     8.8530    -2.1150 H     1 <1>   0.0800 
 41 H        5.6200     8.7550    -1.5270 H     1 <1>   0.0800 
 42 H        6.3320     7.3910    -2.3960 H     1 <1>   0.0800 
 43 H        4.1850    10.2990     1.8850 H     1 <1>   0.0800 
 44 H        4.1130     8.8690     2.9070 H     1 <1>   0.0800 
 45 H        3.0930     8.9860     1.4600 H     1 <1>   0.0800 
@<TRIPOS>BOND
  1   1   2  1   
  2   1   3  1   
  3   2   4  1   
  4   2   5  2   
  5   3  27  1   
  6   3  28  1   
  7   3  29  1   
  8   4   6  1   
  9   4  30  1   
 10   5   7  1   
 11   6   8  1   
 12   6   9  2   
 13   7   9  1   
 14   7  10  2   
 15   8  11  am  
 16   8  31  1   
 17   9  12  1   
 18  11  13  2   
 19  11  14  1   
 20  12  14  1   
 21  12  15  1   
 22  12  32  1   
 23  14  33  1   
 24  14  34  1   
 25  15  16  ar  
 26  15  17  ar  
 27  16  18  1   
 28  16  19  ar  
 29  17  20  ar  
 30  17  35  1   
 31  18  21  1   
 32  19  22  1   
 33  19  23  ar  
 34  20  23  ar  
 35  20  36  1   
 36  21  37  1   
 37  21  38  1   
 38  21  39  1   
 39  22  24  1   
 40  23  25  1   
 41  24  40  1   
 42  24  41  1   
 43  24  42  1   
 44  25  26  1   
 45  26  43  1   
 46  26  44  1   
 47  26  45  1   
@<TRIPOS>SUBSTRUCTURE
  1 ****  15 GROUP 4 **** **** 0

# MOE 2024.06 (io_trps.svl 2023.06)
