@<TRIPOS>MOLECULE
2-Ethoxy-5-(4-phenyl-piperazine-1-sulfonyl)-benzamide
50 52 1 0 0 
SMALL
USER_CHARGES


@<TRIPOS>ATOM
  1 S        0.3180    -0.2200     1.8750 S.o2  1 <1>   1.4470 
  2 O        0.8740    -1.5490     2.0050 O.2   1 <1>  -0.6500 
  3 O        0.1240     0.5810     3.0630 O.2   1 <1>  -0.6500 
  4 N        1.3610     0.6440     0.8570 N.am  1 <1>  -0.8490 
  5 C       -1.2430    -0.2990     0.9520 C.ar  1 <1>  -0.0090 
  6 C        2.5600     1.0950     1.5890 C.3   1 <1>   0.1960 
  7 C        1.7700    -0.1380    -0.3290 C.3   1 <1>   0.1960 
  8 C       -1.6930     0.7670     0.1880 C.ar  1 <1>  -0.1500 
  9 C       -2.0440    -1.4310     1.0050 C.ar  1 <1>  -0.1500 
 10 C        3.5320     1.9130     0.7140 C.3   1 <1>   0.2090 
 11 C        2.6850     0.6600    -1.2780 C.3   1 <1>   0.2090 
 12 C       -2.8920     0.7490    -0.5300 C.ar  1 <1>   0.0860 
 13 C       -3.2380    -1.4930     0.3160 C.ar  1 <1>  -0.1500 
 14 N        3.8700     1.2260    -0.5680 N.pl3 1 <1>  -0.8380 
 15 C       -3.6730    -0.4170    -0.4550 C.ar  1 <1>   0.0820 
 16 C       -3.2560     1.9230    -1.3080 C.2   1 <1>   0.5440 
 17 C        5.0770     0.5420    -0.6620 C.ar  1 <1>   0.1000 
 18 O       -4.8400    -0.4690    -1.1500 O.3   1 <1>  -0.3630 
 19 O       -2.4110     2.6920    -1.7160 O.2   1 <1>  -0.5700 
 20 N       -4.5330     2.2420    -1.6130 N.am  1 <1>  -0.8000 
 21 C        5.3260    -0.6160     0.0670 C.ar  1 <1>  -0.1500 
 22 C        6.0670     1.0210    -1.5090 C.ar  1 <1>  -0.1500 
 23 C       -5.7500    -1.5500    -1.1350 C.3   1 <1>   0.1200 
 24 C        6.5360    -1.2770    -0.0500 C.ar  1 <1>  -0.1500 
 25 C        7.2780     0.3650    -1.6290 C.ar  1 <1>  -0.1500 
 26 C       -6.6110    -1.4700     0.1260 C.3   1 <1>  -0.2400 
 27 C        7.5150    -0.7870    -0.8980 C.ar  1 <1>  -0.1500 
 28 H        3.0830     0.2430     1.9900 H     1 <1>   0.0800 
 29 H        2.2620     1.7110     2.4210 H     1 <1>   0.0800 
 30 H        0.8960    -0.4430    -0.8790 H     1 <1>   0.0800 
 31 H        2.2910    -1.0290    -0.0230 H     1 <1>   0.0800 
 32 H       -1.0870     1.6590     0.1470 H     1 <1>   0.1500 
 33 H       -1.7250    -2.2740     1.5970 H     1 <1>   0.1500 
 34 H        4.4360     2.1030     1.2670 H     1 <1>   0.0800 
 35 H        3.0810     2.8630     0.4880 H     1 <1>   0.0800 
 36 H        2.1230     1.4660    -1.7160 H     1 <1>   0.0800 
 37 H        3.0190     0.0190    -2.0750 H     1 <1>   0.0800 
 38 H       -3.8140    -2.3950     0.3960 H     1 <1>   0.1500 
 39 H       -4.7190     3.0400    -2.2190 H     1 <1>   0.3700 
 40 H       -5.2830     1.5590    -1.4840 H     1 <1>   0.3700 
 41 H        4.5710    -1.0010     0.7240 H     1 <1>   0.1500 
 42 H        5.8720     1.9160    -2.0710 H     1 <1>   0.1500 
 43 H       -5.2100    -2.4780    -1.2110 H     1 <1>   0.0800 
 44 H       -6.3720    -1.4520    -2.0070 H     1 <1>   0.0800 
 45 H        6.7180    -2.1720     0.5190 H     1 <1>   0.1500 
 46 H        8.0350     0.7490    -2.2900 H     1 <1>   0.1500 
 47 H       -6.0080    -1.5560     1.0120 H     1 <1>   0.0800 
 48 H       -7.3280    -2.2710     0.1250 H     1 <1>   0.0800 
 49 H       -7.1450    -0.5370     0.1490 H     1 <1>   0.0800 
 50 H        8.4570    -1.3000    -0.9900 H     1 <1>   0.1500 
@<TRIPOS>BOND
  1   1   2  2   
  2   1   3  2   
  3   1   4  am  
  4   1   5  1   
  5   4   6  1   
  6   4   7  1   
  7   5   8  ar  
  8   5   9  ar  
  9   6  10  1   
 10   6  28  1   
 11   6  29  1   
 12   7  11  1   
 13   7  30  1   
 14   7  31  1   
 15   8  12  ar  
 16   8  32  1   
 17   9  13  ar  
 18   9  33  1   
 19  10  14  1   
 20  10  34  1   
 21  10  35  1   
 22  11  14  1   
 23  11  36  1   
 24  11  37  1   
 25  12  15  ar  
 26  12  16  1   
 27  13  15  ar  
 28  13  38  1   
 29  14  17  1   
 30  15  18  1   
 31  16  19  2   
 32  16  20  am  
 33  17  21  ar  
 34  17  22  ar  
 35  18  23  1   
 36  20  39  1   
 37  20  40  1   
 38  21  24  ar  
 39  21  41  1   
 40  22  25  ar  
 41  22  42  1   
 42  23  26  1   
 43  23  43  1   
 44  23  44  1   
 45  24  27  ar  
 46  24  45  1   
 47  25  27  ar  
 48  25  46  1   
 49  26  47  1   
 50  26  48  1   
 51  26  49  1   
 52  27  50  1   
@<TRIPOS>SUBSTRUCTURE
  1 ****   7 GROUP 4 **** **** 0

# MOE 2024.06 (io_trps.svl 2023.06)
