@<TRIPOS>MOLECULE
4-(2,3-Dimethoxy-phenyl)-2,7-dimethyl-5-oxo-1,4,5,6,7,8-hexahydro-quinoline-3-ca
59 62 1 0 0 
SMALL
USER_CHARGES


@<TRIPOS>ATOM
  1 O        1.0230    -0.1550    -2.0660 O.2   1 <1>  -0.5700 
  2 C        0.7120    -1.1840    -1.5160 C.2   1 <1>   0.4950 
  3 C        1.5900    -1.9770    -0.7220 C.2   1 <1>  -0.1240 
  4 C       -0.7080    -1.6810    -1.7380 C.3   1 <1>  -0.0990 
  5 C        1.2340    -3.1740    -0.1940 C.2   1 <1>  -0.0380 
  6 C        2.9960    -1.4250    -0.4590 C.3   1 <1>   0.3400 
  7 C       -1.1880    -2.6050    -0.6040 C.3   1 <1>  -0.0800 
  8 N        2.1330    -3.9540     0.4870 N.pl3 1 <1>  -0.6000 
  9 C       -0.1730    -3.7320    -0.3460 C.3   1 <1>  -0.0220 
 10 C        3.9840    -2.4940     0.0420 C.2   1 <1>  -0.1240 
 11 C        2.8850    -0.3090     0.5930 C.ar  1 <1>  -0.1440 
 12 C       -2.5790    -3.1740    -0.9130 C.3   1 <1>  -0.2400 
 13 C        3.4810    -3.6630     0.5340 C.2   1 <1>  -0.0380 
 14 C        5.3800    -2.1560    -0.0850 C.2   1 <1>   0.6160 
 15 C        3.3130     0.9920     0.3380 C.ar  1 <1>   0.0830 
 16 C        2.3420    -0.6030     1.8390 C.ar  1 <1>  -0.1500 
 17 C        4.3000    -4.7800     1.1630 C.3   1 <1>  -0.1020 
 18 O        6.2050    -3.0340    -0.2630 O.2   1 <1>  -0.5700 
 19 N        5.8240    -0.8580    -0.0270 N.am  1 <1>  -0.5470 
 20 O        3.8360     1.2670    -0.8820 O.3   1 <1>  -0.3630 
 21 C        3.2210     1.9700     1.3370 C.ar  1 <1>   0.0830 
 22 C        2.2190     0.3710     2.8130 C.ar  1 <1>  -0.1500 
 23 C        7.0930    -0.3180    -0.0440 C.ar  1 <1>   0.4270 
 24 C        3.1500     2.2230    -1.6640 C.3   1 <1>   0.0400 
 25 O        3.6840     3.2330     1.1740 O.3   1 <1>  -0.3630 
 26 C        2.6570     1.6580     2.5600 C.ar  1 <1>  -0.1500 
 27 N        7.1830     0.8390     0.5980 N.ar  1 <1>  -0.6200 
 28 C        8.1770    -0.9130    -0.6900 C.ar  1 <1>  -0.1500 
 29 C        5.0850     3.3680     1.0780 C.3   1 <1>   0.0400 
 30 C        8.3790     1.4040     0.6180 C.ar  1 <1>   0.1600 
 31 C        9.4150    -0.3130    -0.6640 C.ar  1 <1>  -0.1500 
 32 C        9.5100     0.8820     0.0170 C.ar  1 <1>  -0.1500 
 33 H       -0.7330    -2.2030    -2.6770 H     1 <1>   0.0800 
 34 H       -1.3630    -0.8310    -1.8120 H     1 <1>   0.0800 
 35 H        3.3700    -1.0510    -1.3960 H     1 <1>   0.0800 
 36 H       -1.2580    -2.0130     0.2950 H     1 <1>   0.0800 
 37 H        1.8210    -4.8530     0.8720 H     1 <1>   0.4000 
 38 H       -0.4540    -4.2530     0.5520 H     1 <1>   0.0800 
 39 H       -0.1800    -4.4360    -1.1600 H     1 <1>   0.0800 
 40 H       -2.5570    -3.7730    -1.8070 H     1 <1>   0.0800 
 41 H       -3.2870    -2.3760    -1.0540 H     1 <1>   0.0800 
 42 H       -2.9220    -3.7870    -0.0980 H     1 <1>   0.0800 
 43 H        2.0080    -1.6030     2.0580 H     1 <1>   0.1500 
 44 H        4.4670    -5.5590     0.4410 H     1 <1>   0.0800 
 45 H        3.7820    -5.1920     2.0100 H     1 <1>   0.0800 
 46 H        5.2510    -4.4270     1.5140 H     1 <1>   0.0800 
 47 H        5.1250    -0.1520     0.2110 H     1 <1>   0.3700 
 48 H        1.7880     0.1280     3.7680 H     1 <1>   0.1500 
 49 H        3.4350     2.0840    -2.6910 H     1 <1>   0.0800 
 50 H        3.4220     3.2090    -1.3370 H     1 <1>   0.0800 
 51 H        2.0900     2.0750    -1.5560 H     1 <1>   0.0800 
 52 H        2.5720     2.4220     3.3110 H     1 <1>   0.1500 
 53 H        8.0480    -1.8400    -1.2140 H     1 <1>   0.1500 
 54 H        5.4220     2.9360     0.1520 H     1 <1>   0.0800 
 55 H        5.3260     4.4150     1.1030 H     1 <1>   0.0800 
 56 H        5.5420     2.8610     1.9090 H     1 <1>   0.0800 
 57 H        8.4640     2.3380     1.1460 H     1 <1>   0.1500 
 58 H       10.2660    -0.7560    -1.1510 H     1 <1>   0.1500 
 59 H       10.4480     1.4020     0.0800 H     1 <1>   0.1500 
@<TRIPOS>BOND
  1   1   2  2   
  2   2   3  1   
  3   2   4  1   
  4   3   5  2   
  5   3   6  1   
  6   4   7  1   
  7   4  33  1   
  8   4  34  1   
  9   5   8  1   
 10   5   9  1   
 11   6  10  1   
 12   6  11  1   
 13   6  35  1   
 14   7   9  1   
 15   7  12  1   
 16   7  36  1   
 17   8  13  1   
 18   8  37  1   
 19   9  38  1   
 20   9  39  1   
 21  10  13  2   
 22  10  14  1   
 23  11  15  ar  
 24  11  16  ar  
 25  12  40  1   
 26  12  41  1   
 27  12  42  1   
 28  13  17  1   
 29  14  18  2   
 30  14  19  am  
 31  15  20  1   
 32  15  21  ar  
 33  16  22  ar  
 34  16  43  1   
 35  17  44  1   
 36  17  45  1   
 37  17  46  1   
 38  19  23  1   
 39  19  47  1   
 40  20  24  1   
 41  21  25  1   
 42  21  26  ar  
 43  22  26  ar  
 44  22  48  1   
 45  23  27  ar  
 46  23  28  ar  
 47  24  49  1   
 48  24  50  1   
 49  24  51  1   
 50  25  29  1   
 51  26  52  1   
 52  27  30  ar  
 53  28  31  ar  
 54  28  53  1   
 55  29  54  1   
 56  29  55  1   
 57  29  56  1   
 58  30  32  ar  
 59  30  57  1   
 60  31  32  ar  
 61  31  58  1   
 62  32  59  1   
@<TRIPOS>SUBSTRUCTURE
  1 ****  11 GROUP 4 **** **** 0

# MOE 2024.06 (io_trps.svl 2023.06)
