@<TRIPOS>MOLECULE
3-Cyclohexyl-1-ethyl-1-[3-(4-methoxy-phenyl)-[1,2,4]oxadiazol-5-ylmethyl]-urea
52 54 1 0 0 
SMALL
USER_CHARGES


@<TRIPOS>ATOM
  1 O       -0.0860     0.7950     1.8480 O.2   1 <1>  -0.5700 
  2 C        0.2350     0.9840     0.6900 C.2   1 <1>   0.6900 
  3 N        1.5480     0.9230     0.3110 N.am  1 <1>  -0.6600 
  4 N       -0.7080     1.2630    -0.2390 N.am  1 <1>  -0.7300 
  5 C        2.6060     0.7250     1.3550 C.3   1 <1>   0.3200 
  6 C        1.9760     0.7260    -1.1000 C.3   1 <1>   0.1400 
  7 C       -2.1470     1.4160     0.0160 C.3   1 <1>   0.2200 
  8 C        3.8050     1.6390     1.1520 C.2   1 <1>   0.2980 
  9 C        2.1740     2.0780    -1.7850 C.3   1 <1>  -0.2400 
 10 C       -2.9200     0.5530    -0.9860 C.3   1 <1>  -0.1600 
 11 C       -2.5190     2.8960    -0.1180 C.3   1 <1>  -0.1600 
 12 O        3.6660     2.9150     1.3960 O.3   1 <1>  -0.0190 
 13 N        4.9590     1.2820     0.7550 N.2   1 <1>  -0.5650 
 14 C       -4.4350     0.7560    -0.8400 C.3   1 <1>  -0.1600 
 15 C       -4.0340     3.1030     0.0290 C.3   1 <1>  -0.1600 
 16 N        4.8310     3.4170     1.1270 N.2   1 <1>  -0.4100 
 17 C        5.5980     2.4570     0.7470 C.2   1 <1>   0.4620 
 18 C       -4.8120     2.2380    -0.9720 C.3   1 <1>  -0.1600 
 19 C        6.9890     2.5910     0.3470 C.ar  1 <1>   0.0540 
 20 C        7.6210     3.8370     0.3290 C.ar  1 <1>  -0.1500 
 21 C        7.7540     1.4870    -0.0370 C.ar  1 <1>  -0.1500 
 22 C        8.9430     3.9800    -0.0520 C.ar  1 <1>  -0.1500 
 23 C        9.0760     1.6200    -0.4190 C.ar  1 <1>  -0.1500 
 24 C        9.6820     2.8640    -0.4310 C.ar  1 <1>   0.0820 
 25 O       10.9800     2.9110    -0.8170 O.3   1 <1>  -0.3620 
 26 C       11.6900     4.1290    -0.8610 C.3   1 <1>   0.0400 
 27 H       -0.3850     1.5680    -1.1520 H     1 <1>   0.3700 
 28 H        2.9360    -0.2970     1.3210 H     1 <1>   0.0800 
 29 H        2.2120     0.9110     2.3380 H     1 <1>   0.0800 
 30 H        1.2310     0.1530    -1.6270 H     1 <1>   0.0800 
 31 H        2.8960     0.1650    -1.1300 H     1 <1>   0.0800 
 32 H       -2.3770     1.0840     1.0160 H     1 <1>   0.0800 
 33 H        1.2750     2.6640    -1.7470 H     1 <1>   0.0800 
 34 H        2.4380     1.9230    -2.8160 H     1 <1>   0.0800 
 35 H        2.9710     2.6270    -1.3170 H     1 <1>   0.0800 
 36 H       -2.6820    -0.4830    -0.8180 H     1 <1>   0.0800 
 37 H       -2.6270     0.8140    -1.9880 H     1 <1>   0.0800 
 38 H       -2.2080     3.2600    -1.0810 H     1 <1>   0.0800 
 39 H       -2.0080     3.4590     0.6430 H     1 <1>   0.0800 
 40 H       -4.7510     0.3930     0.1240 H     1 <1>   0.0800 
 41 H       -4.9510     0.1830    -1.5920 H     1 <1>   0.0800 
 42 H       -4.2730     4.1410    -0.1270 H     1 <1>   0.0800 
 43 H       -4.3320     2.8430     1.0310 H     1 <1>   0.0800 
 44 H       -5.8690     2.3570    -0.8040 H     1 <1>   0.0800 
 45 H       -4.5990     2.5720    -1.9730 H     1 <1>   0.0800 
 46 H        7.0640     4.7110     0.6190 H     1 <1>   0.1500 
 47 H        7.3080     0.5080    -0.0360 H     1 <1>   0.1500 
 48 H        9.3780     4.9610    -0.0480 H     1 <1>   0.1500 
 49 H        9.6480     0.7590    -0.7110 H     1 <1>   0.1500 
 50 H       12.6910     3.9190    -1.1930 H     1 <1>   0.0800 
 51 H       11.7140     4.5540     0.1270 H     1 <1>   0.0800 
 52 H       11.2060     4.7910    -1.5560 H     1 <1>   0.0800 
@<TRIPOS>BOND
  1   1   2  2   
  2   2   3  am  
  3   2   4  am  
  4   3   5  1   
  5   3   6  1   
  6   4   7  1   
  7   4  27  1   
  8   5   8  1   
  9   5  28  1   
 10   5  29  1   
 11   6   9  1   
 12   6  30  1   
 13   6  31  1   
 14   7  10  1   
 15   7  11  1   
 16   7  32  1   
 17   8  12  1   
 18   8  13  2   
 19   9  33  1   
 20   9  34  1   
 21   9  35  1   
 22  10  14  1   
 23  10  36  1   
 24  10  37  1   
 25  11  15  1   
 26  11  38  1   
 27  11  39  1   
 28  12  16  1   
 29  13  17  1   
 30  14  18  1   
 31  14  40  1   
 32  14  41  1   
 33  15  18  1   
 34  15  42  1   
 35  15  43  1   
 36  16  17  2   
 37  17  19  1   
 38  18  44  1   
 39  18  45  1   
 40  19  20  ar  
 41  19  21  ar  
 42  20  22  ar  
 43  20  46  1   
 44  21  23  ar  
 45  21  47  1   
 46  22  24  ar  
 47  22  48  1   
 48  23  24  ar  
 49  23  49  1   
 50  24  25  1   
 51  25  26  1   
 52  26  50  1   
 53  26  51  1   
 54  26  52  1   
@<TRIPOS>SUBSTRUCTURE
  1 ****   8 GROUP 4 **** **** 0

# MOE 2024.06 (io_trps.svl 2023.06)
