@<TRIPOS>MOLECULE
3-Methyl-4-(2-oxo-2-pyrrolidin-1-yl-ethoxy)-N-propyl-benzenesulfonamide
47 48 1 0 0 
SMALL
USER_CHARGES


@<TRIPOS>ATOM
  1 S       -0.1090     0.9300     0.7530 S.o2  1 <1>   1.4470 
  2 O       -0.5140     2.2520     0.3310 O.2   1 <1>  -0.6500 
  3 O       -0.6570     0.3470     1.9560 O.2   1 <1>  -0.6500 
  4 N       -0.5660    -0.1480    -0.4520 N.am  1 <1>  -0.9140 
  5 C        1.7000     0.8010     0.7550 C.ar  1 <1>  -0.0090 
  6 C       -1.7990     0.1740    -1.1550 C.3   1 <1>   0.1960 
  7 C        2.4590     1.3990    -0.2460 C.ar  1 <1>  -0.1500 
  8 C        2.3720     0.0860     1.7410 C.ar  1 <1>  -0.1500 
  9 C       -3.0200    -0.0690    -0.2610 C.3   1 <1>  -0.1600 
 10 C        3.8420     1.2990    -0.2760 C.ar  1 <1>  -0.1430 
 11 C        3.7510    -0.0260     1.7290 C.ar  1 <1>  -0.1500 
 12 C       -4.3250     0.1340    -1.0390 C.3   1 <1>  -0.2400 
 13 C        4.4870     0.5830     0.7250 C.ar  1 <1>   0.0830 
 14 C        4.6280     1.9750    -1.3890 C.3   1 <1>  -0.0970 
 15 O        5.8310     0.4540     0.7120 O.3   1 <1>  -0.3630 
 16 C        6.5640     1.1150     1.7360 C.3   1 <1>   0.1810 
 17 C        6.9350     2.5430     1.3440 C.2   1 <1>   0.5690 
 18 O        6.4720     3.4490     1.9980 O.2   1 <1>  -0.5700 
 19 N        7.7990     2.7870     0.3070 N.am  1 <1>  -0.6600 
 20 C        8.4050     1.7730    -0.5840 C.3   1 <1>   0.1400 
 21 C        8.1920     4.1540    -0.0920 C.3   1 <1>   0.1400 
 22 C        8.9920     2.5780    -1.7380 C.3   1 <1>  -0.1600 
 23 C        9.2770     3.9560    -1.1440 C.3   1 <1>  -0.1600 
 24 H       -0.7180    -1.0200     0.0500 H     1 <1>   0.4200 
 25 H       -1.8700    -0.4620    -2.0210 H     1 <1>   0.0800 
 26 H       -1.7800     1.1950    -1.5020 H     1 <1>   0.0800 
 27 H        1.9470     1.9540    -1.0140 H     1 <1>   0.1500 
 28 H        1.8100    -0.3900     2.5270 H     1 <1>   0.1500 
 29 H       -3.0090     0.6170     0.5690 H     1 <1>   0.0800 
 30 H       -2.9960    -1.0730     0.1230 H     1 <1>   0.0800 
 31 H        4.2540    -0.5910     2.4920 H     1 <1>   0.1500 
 32 H       -4.3850     1.1400    -1.4170 H     1 <1>   0.0800 
 33 H       -5.1680    -0.0360    -0.3920 H     1 <1>   0.0800 
 34 H       -4.3860    -0.5530    -1.8650 H     1 <1>   0.0800 
 35 H        3.9750     2.3160    -2.1720 H     1 <1>   0.0800 
 36 H        5.3340     1.2840    -1.8130 H     1 <1>   0.0800 
 37 H        5.1620     2.8200    -0.9940 H     1 <1>   0.0800 
 38 H        7.4600     0.5510     1.9090 H     1 <1>   0.0800 
 39 H        5.9810     1.1270     2.6380 H     1 <1>   0.0800 
 40 H        7.6720     1.0680    -0.9360 H     1 <1>   0.0800 
 41 H        9.1860     1.2570    -0.0530 H     1 <1>   0.0800 
 42 H        8.5530     4.7120     0.7560 H     1 <1>   0.0800 
 43 H        7.3380     4.6540    -0.5150 H     1 <1>   0.0800 
 44 H        8.2530     2.6630    -2.5160 H     1 <1>   0.0800 
 45 H        9.8740     2.1140    -2.1420 H     1 <1>   0.0800 
 46 H       10.2370     3.9530    -0.6580 H     1 <1>   0.0800 
 47 H        9.2620     4.7350    -1.8850 H     1 <1>   0.0800 
@<TRIPOS>BOND
  1   1   2  2   
  2   1   3  2   
  3   1   4  am  
  4   1   5  1   
  5   4   6  1   
  6   4  24  1   
  7   5   7  ar  
  8   5   8  ar  
  9   6   9  1   
 10   6  25  1   
 11   6  26  1   
 12   7  10  ar  
 13   7  27  1   
 14   8  11  ar  
 15   8  28  1   
 16   9  12  1   
 17   9  29  1   
 18   9  30  1   
 19  10  13  ar  
 20  10  14  1   
 21  11  13  ar  
 22  11  31  1   
 23  12  32  1   
 24  12  33  1   
 25  12  34  1   
 26  13  15  1   
 27  14  35  1   
 28  14  36  1   
 29  14  37  1   
 30  15  16  1   
 31  16  17  1   
 32  16  38  1   
 33  16  39  1   
 34  17  18  2   
 35  17  19  am  
 36  19  20  1   
 37  19  21  1   
 38  20  22  1   
 39  20  40  1   
 40  20  41  1   
 41  21  23  1   
 42  21  42  1   
 43  21  43  1   
 44  22  23  1   
 45  22  44  1   
 46  22  45  1   
 47  23  46  1   
 48  23  47  1   
@<TRIPOS>SUBSTRUCTURE
  1 ****  10 GROUP 4 **** **** 0

# MOE 2024.06 (io_trps.svl 2023.06)
