@<TRIPOS>MOLECULE
8-Ethylamino-7-[3-(3-ethyl-phenoxy)-2-hydroxy-propyl]-3-methyl-3,7-dihydro-purin
54 56 1 0 0 
SMALL
USER_CHARGES


@<TRIPOS>ATOM
  1 O        2.5880     0.7490     2.0400 O.2   1 <1>  -0.5740 
  2 C        3.5060     1.2980     1.4760 C.2   1 <1>   0.6860 
  3 N        4.7690     0.7300     1.3940 N.am  1 <1>  -0.4410 
  4 N        3.2820     2.5150     0.9020 N.am  1 <1>  -0.4950 
  5 C        5.7600     1.4610     0.7560 C.2   1 <1>   0.4210 
  6 C        5.0540    -0.6040     1.9980 C.3   1 <1>   0.0530 
  7 C        4.2360     3.2320     0.2380 C.2   1 <1>   0.7000 
  8 N        7.0670     1.1170     0.5870 N.pl3 1 <1>  -0.7030 
  9 C        5.5590     2.6760     0.1960 C.2   1 <1>   0.2710 
 10 O        3.9100     4.2680    -0.3050 O.2   1 <1>  -0.5740 
 11 C        7.6790     2.1130    -0.0460 C.cat 1 <1>   1.0690 
 12 N        6.8050     3.0790    -0.3160 N.pl3 1 <1>  -0.7670 
 13 N        8.9780     2.1330    -0.3450 N.pl3 1 <1>  -0.7180 
 14 C        7.0660     4.4410    -0.8500 C.3   1 <1>   0.3480 
 15 C        9.9720     1.0650    -0.1140 C.3   1 <1>   0.1610 
 16 C        7.6470     5.3500     0.2550 C.3   1 <1>   0.1930 
 17 C       10.1280     0.2600    -1.3970 C.3   1 <1>  -0.2460 
 18 O        6.6730     5.5920     1.2210 O.3   1 <1>  -0.6840 
 19 C        8.1930     6.6720    -0.3100 C.3   1 <1>   0.1130 
 20 O        9.0590     6.4060    -1.4040 O.3   1 <1>  -0.3680 
 21 C       10.0940     5.5380    -1.2790 C.ar  1 <1>   0.0750 
 22 C       10.8180     5.3940    -0.1020 C.ar  1 <1>  -0.1570 
 23 C       10.3940     4.7440    -2.3730 C.ar  1 <1>  -0.1570 
 24 C       11.8070     4.4300    -0.0030 C.ar  1 <1>  -0.1500 
 25 C       11.3880     3.7860    -2.2820 C.ar  1 <1>  -0.1570 
 26 C       12.0880     3.6270    -1.0980 C.ar  1 <1>  -0.1570 
 27 C       12.5930     4.2810     1.2920 C.3   1 <1>  -0.0240 
 28 C       11.7460     3.6290     2.3880 C.3   1 <1>  -0.2460 
 29 H        2.3400     2.8960     0.9580 H     1 <1>   0.3640 
 30 H        4.1420    -1.0920     2.2970 H     1 <1>   0.0730 
 31 H        5.6760    -0.4840     2.8680 H     1 <1>   0.0730 
 32 H        5.5530    -1.2340     1.2830 H     1 <1>   0.0730 
 33 H        7.5230     0.2650     0.8950 H     1 <1>   0.4450 
 34 H        9.3740     2.9530    -0.8190 H     1 <1>   0.4450 
 35 H        6.1630     4.8800    -1.2390 H     1 <1>   0.0730 
 36 H        7.7510     4.3540    -1.6740 H     1 <1>   0.0730 
 37 H        9.6640     0.4210     0.6920 H     1 <1>   0.0730 
 38 H       10.9180     1.5050     0.1550 H     1 <1>   0.0730 
 39 H        8.4460     4.8350     0.7570 H     1 <1>   0.0730 
 40 H        9.1990    -0.2040    -1.6770 H     1 <1>   0.0730 
 41 H       10.8590    -0.5150    -1.2490 H     1 <1>   0.0730 
 42 H       10.4700     0.8890    -2.2000 H     1 <1>   0.0730 
 43 H        6.9840     6.2370     1.8890 H     1 <1>   0.3950 
 44 H        8.7430     7.2240     0.4310 H     1 <1>   0.0730 
 45 H        7.3890     7.2800    -0.6850 H     1 <1>   0.0730 
 46 H       10.6260     6.0340     0.7390 H     1 <1>   0.1430 
 47 H        9.8570     4.8830    -3.2950 H     1 <1>   0.1430 
 48 H       11.6270     3.1740    -3.1350 H     1 <1>   0.1430 
 49 H       12.8670     2.8860    -1.0400 H     1 <1>   0.1430 
 50 H       12.9190     5.2530     1.6210 H     1 <1>   0.0730 
 51 H       13.4760     3.6880     1.1220 H     1 <1>   0.0730 
 52 H       10.8690     4.2180     2.5870 H     1 <1>   0.0730 
 53 H       12.3200     3.5570     3.2950 H     1 <1>   0.0730 
 54 H       11.4470     2.6410     2.0950 H     1 <1>   0.0730 
@<TRIPOS>BOND
  1   1   2  2   
  2   2   3  am  
  3   2   4  am  
  4   3   5  1   
  5   3   6  1   
  6   4   7  am  
  7   4  29  1   
  8   5   8  1   
  9   5   9  2   
 10   6  30  1   
 11   6  31  1   
 12   6  32  1   
 13   7   9  1   
 14   7  10  2   
 15   8  11  ar  
 16   8  33  1   
 17   9  12  1   
 18  11  12  ar  
 19  11  13  ar  
 20  12  14  1   
 21  13  15  1   
 22  13  34  1   
 23  14  16  1   
 24  14  35  1   
 25  14  36  1   
 26  15  17  1   
 27  15  37  1   
 28  15  38  1   
 29  16  18  1   
 30  16  19  1   
 31  16  39  1   
 32  17  40  1   
 33  17  41  1   
 34  17  42  1   
 35  18  43  1   
 36  19  20  1   
 37  19  44  1   
 38  19  45  1   
 39  20  21  1   
 40  21  22  ar  
 41  21  23  ar  
 42  22  24  ar  
 43  22  46  1   
 44  23  25  ar  
 45  23  47  1   
 46  24  26  ar  
 47  24  27  1   
 48  25  26  ar  
 49  25  48  1   
 50  26  49  1   
 51  27  28  1   
 52  27  50  1   
 53  27  51  1   
 54  28  52  1   
 55  28  53  1   
 56  28  54  1   
@<TRIPOS>SUBSTRUCTURE
  1 ****  12 GROUP 4 **** **** 0

# MOE 2024.06 (io_trps.svl 2023.06)
