@<TRIPOS>MOLECULE
Morpholine-4-carboxylic acid isopropyl-(3-m-tolyl-[1,2,4]oxadiazol-5-ylmethyl)-a
49 51 1 0 0 
SMALL
USER_CHARGES


@<TRIPOS>ATOM
  1 O        0.1200     0.6800    -0.0330 O.2   1 <1>  -0.5700 
  2 C        0.5520     1.7990     0.1810 C.2   1 <1>   0.6900 
  3 N       -0.0560     2.8870    -0.3810 N.am  1 <1>  -0.6600 
  4 N        1.6510     1.9510     0.9740 N.am  1 <1>  -0.6600 
  5 C        0.7170     4.0480    -0.9060 C.3   1 <1>   0.1400 
  6 C       -1.4210     2.7840    -0.9660 C.3   1 <1>   0.1400 
  7 C        1.6170     2.8690     2.1400 C.3   1 <1>   0.2200 
  8 C        2.7750     0.9780     0.8230 C.3   1 <1>   0.3200 
  9 C       -0.1210     5.3330    -0.8180 C.3   1 <1>   0.1200 
 10 C       -2.1450     4.1380    -0.8830 C.3   1 <1>   0.1200 
 11 C        2.9300     3.6400     2.2840 C.3   1 <1>  -0.2400 
 12 C        1.2940     2.0780     3.4060 C.3   1 <1>  -0.2400 
 13 C        3.8730     1.5550    -0.0590 C.2   1 <1>   0.2980 
 14 O       -1.3640     5.1590    -1.4400 O.3   1 <1>  -0.5600 
 15 O        3.5640     1.9290    -1.2730 O.3   1 <1>  -0.0190 
 16 N        5.0870     1.7300     0.2720 N.2   1 <1>  -0.5650 
 17 N        4.6730     2.3940    -1.7530 N.2   1 <1>  -0.4100 
 18 C        5.5780     2.2770    -0.8460 C.2   1 <1>   0.4620 
 19 C        6.9670     2.6860    -0.9780 C.ar  1 <1>   0.0540 
 20 C        7.8840     2.5250     0.0640 C.ar  1 <1>  -0.1500 
 21 C        7.4400     3.2630    -2.1570 C.ar  1 <1>  -0.1500 
 22 C        9.2060     2.9170    -0.0570 C.ar  1 <1>  -0.1440 
 23 C        8.7580     3.6600    -2.2900 C.ar  1 <1>  -0.1500 
 24 C        9.6410     3.4880    -1.2400 C.ar  1 <1>  -0.1500 
 25 C       10.1780     2.7300     1.0940 C.3   1 <1>  -0.0970 
 26 H        0.9710     3.8630    -1.9360 H     1 <1>   0.0800 
 27 H        1.6330     4.1750    -0.3610 H     1 <1>   0.0800 
 28 H       -1.9900     2.0380    -0.4370 H     1 <1>   0.0800 
 29 H       -1.3450     2.4790    -1.9950 H     1 <1>   0.0800 
 30 H        0.8240     3.5830     1.9880 H     1 <1>   0.0800 
 31 H        2.4220     0.0670     0.3730 H     1 <1>   0.0800 
 32 H        3.1830     0.7310     1.7840 H     1 <1>   0.0800 
 33 H        0.3850     6.1410    -1.3160 H     1 <1>   0.0800 
 34 H       -0.2860     5.6080     0.2100 H     1 <1>   0.0800 
 35 H       -2.3590     4.3880     0.1420 H     1 <1>   0.0800 
 36 H       -3.0700     4.0970    -1.4290 H     1 <1>   0.0800 
 37 H        3.1740     4.1440     1.3680 H     1 <1>   0.0800 
 38 H        3.7390     2.9860     2.5550 H     1 <1>   0.0800 
 39 H        2.8300     4.3790     3.0580 H     1 <1>   0.0800 
 40 H        2.0830     1.3920     3.6520 H     1 <1>   0.0800 
 41 H        0.3770     1.5320     3.2740 H     1 <1>   0.0800 
 42 H        1.1660     2.7530     4.2330 H     1 <1>   0.0800 
 43 H        7.5490     2.0840     0.9860 H     1 <1>   0.1500 
 44 H        6.7660     3.4040    -2.9840 H     1 <1>   0.1500 
 45 H        9.0980     4.1030    -3.2100 H     1 <1>   0.1500 
 46 H       10.6660     3.7990    -1.3480 H     1 <1>   0.1500 
 47 H        9.7880     2.0340     1.8140 H     1 <1>   0.0800 
 48 H       10.3490     3.6730     1.5820 H     1 <1>   0.0800 
 49 H       11.1160     2.3510     0.7290 H     1 <1>   0.0800 
@<TRIPOS>BOND
  1   1   2  2   
  2   2   3  am  
  3   2   4  am  
  4   3   5  1   
  5   3   6  1   
  6   4   7  1   
  7   4   8  1   
  8   5   9  1   
  9   5  26  1   
 10   5  27  1   
 11   6  10  1   
 12   6  28  1   
 13   6  29  1   
 14   7  11  1   
 15   7  12  1   
 16   7  30  1   
 17   8  13  1   
 18   8  31  1   
 19   8  32  1   
 20   9  14  1   
 21   9  33  1   
 22   9  34  1   
 23  10  14  1   
 24  10  35  1   
 25  10  36  1   
 26  11  37  1   
 27  11  38  1   
 28  11  39  1   
 29  12  40  1   
 30  12  41  1   
 31  12  42  1   
 32  13  15  1   
 33  13  16  2   
 34  15  17  1   
 35  16  18  1   
 36  17  18  2   
 37  18  19  1   
 38  19  20  ar  
 39  19  21  ar  
 40  20  22  ar  
 41  20  43  1   
 42  21  23  ar  
 43  21  44  1   
 44  22  24  ar  
 45  22  25  1   
 46  23  24  ar  
 47  23  45  1   
 48  24  46  1   
 49  25  47  1   
 50  25  48  1   
 51  25  49  1   
@<TRIPOS>SUBSTRUCTURE
  1 ****  13 GROUP 4 **** **** 0

# MOE 2024.06 (io_trps.svl 2023.06)
