@<TRIPOS>MOLECULE
3-(2,5,7-Trimethyl-[1,2,4]triazolo[1,5-a]pyrimidin-6-yl)-propionic acid
30 31 1 0 0 
SMALL
USER_CHARGES


@<TRIPOS>ATOM
  1 O       -0.3350     0.1090    -0.1210 O.co2 1 <1>  -0.9000 
  2 C       -0.1130    -1.1020    -0.1700 C.2   1 <1>   0.9060 
  3 O        0.9880    -1.6040     0.0650 O.co2 1 <1>  -0.9000 
  4 C       -1.2580    -2.0240    -0.4820 C.3   1 <1>  -0.2660 
  5 C       -1.9090    -2.4980     0.8200 C.3   1 <1>  -0.0220 
  6 C       -3.0660    -3.4610     0.5380 C.2   1 <1>  -0.1240 
  7 C       -2.8190    -4.8790     0.5040 C.2   1 <1>   0.3750 
  8 C       -4.3350    -3.0000     0.3140 C.2   1 <1>  -0.1690 
  9 N       -3.7440    -5.7570     0.2970 N.2   1 <1>  -0.5760 
 10 C       -1.4210    -5.4330     0.7180 C.3   1 <1>  -0.1790 
 11 N       -5.3170    -3.9550     0.0940 N.pl3 1 <1>   0.6010 
 12 C       -4.7880    -1.5390     0.2690 C.3   1 <1>  -0.1020 
 13 C       -5.0110    -5.2810     0.0950 C.2   1 <1>   0.3120 
 14 N       -6.6250    -3.8220    -0.1250 N.2   1 <1>  -0.7070 
 15 N       -6.0710    -5.9970    -0.1170 N.2   1 <1>  -0.5650 
 16 C       -7.0010    -5.0550    -0.2400 C.2   1 <1>   0.3350 
 17 C       -8.4360    -5.4390    -0.5030 C.3   1 <1>  -0.0590 
 18 H       -0.8760    -2.8520    -1.0450 H     1 <1>   0.0800 
 19 H       -1.9650    -1.4910    -1.0880 H     1 <1>   0.0800 
 20 H       -2.2550    -1.6410     1.3700 H     1 <1>   0.0800 
 21 H       -1.1600    -2.9510     1.4450 H     1 <1>   0.0800 
 22 H       -0.7220    -4.9580     0.0560 H     1 <1>   0.0800 
 23 H       -1.4030    -6.4900     0.5210 H     1 <1>   0.0800 
 24 H       -1.1150    -5.2740     1.7340 H     1 <1>   0.0800 
 25 H       -5.4280    -1.3300     1.1070 H     1 <1>   0.0800 
 26 H       -5.3440    -1.3580    -0.6340 H     1 <1>   0.0800 
 27 H       -3.9670    -0.8460     0.2840 H     1 <1>   0.0800 
 28 H       -9.0480    -4.5590    -0.5720 H     1 <1>   0.0800 
 29 H       -8.7930    -6.0570     0.2990 H     1 <1>   0.0800 
 30 H       -8.4960    -5.9860    -1.4250 H     1 <1>   0.0800 
@<TRIPOS>BOND
  1   1   2  ar  
  2   2   3  ar  
  3   2   4  1   
  4   4   5  1   
  5   4  18  1   
  6   4  19  1   
  7   5   6  1   
  8   5  20  1   
  9   5  21  1   
 10   6   7  1   
 11   6   8  2   
 12   7   9  2   
 13   7  10  1   
 14   8  11  1   
 15   8  12  1   
 16   9  13  1   
 17  10  22  1   
 18  10  23  1   
 19  10  24  1   
 20  11  13  1   
 21  11  14  1   
 22  12  25  1   
 23  12  26  1   
 24  12  27  1   
 25  13  15  2   
 26  14  16  2   
 27  15  16  1   
 28  16  17  1   
 29  17  28  1   
 30  17  29  1   
 31  17  30  1   
@<TRIPOS>SUBSTRUCTURE
  1 ****   6 GROUP 4 **** **** 0

# MOE 2024.06 (io_trps.svl 2023.06)
