@<TRIPOS>MOLECULE
6-(4-Fluoro-phenyl)-3-(3,4,5-trimethoxy-phenyl)-dihydro-imidazo[1,5-c]thiazole-5
48 51 1 0 0 
SMALL
USER_CHARGES


@<TRIPOS>ATOM
  1 S        0.1600    -0.7580     0.4360 S.3   1 <1>  -0.4600 
  2 C       -1.1260    -1.8760     1.0290 C.3   1 <1>   0.5940 
  3 C        0.5600    -1.6350    -1.0900 C.3   1 <1>   0.0700 
  4 N       -0.7170    -3.1310     0.3910 N.am  1 <1>  -0.6600 
  5 C       -2.4960    -1.3830     0.5440 C.ar  1 <1>  -0.1440 
  6 C       -0.0700    -3.0240    -0.9380 C.3   1 <1>   0.2810 
  7 C       -0.0960    -4.1010     1.1010 C.2   1 <1>   0.6900 
  8 C       -2.8290    -0.0370     0.6270 C.ar  1 <1>  -0.1500 
  9 C       -3.4370    -2.2650     0.0270 C.ar  1 <1>  -0.1500 
 10 C        0.9570    -4.1410    -0.8570 C.2   1 <1>   0.5690 
 11 O       -0.3480    -4.3200     2.2680 O.2   1 <1>  -0.5700 
 12 N        0.8700    -4.7570     0.3660 N.am  1 <1>  -0.2370 
 13 C       -4.0660     0.4300     0.1900 C.ar  1 <1>   0.0830 
 14 C       -4.6710    -1.8280    -0.4230 C.ar  1 <1>   0.0830 
 15 O        1.7160    -4.4070    -1.7580 O.2   1 <1>  -0.5700 
 16 C        1.6590    -5.8390     0.8190 C.ar  1 <1>   0.1170 
 17 O       -4.4060     1.7510     0.2510 O.3   1 <1>  -0.3630 
 18 C       -5.0000    -0.4710    -0.3260 C.ar  1 <1>   0.0830 
 19 O       -5.4820    -2.7970    -0.9320 O.3   1 <1>  -0.3630 
 20 C        1.0730    -6.9060     1.5010 C.ar  1 <1>  -0.1500 
 21 C        3.0360    -5.8610     0.5920 C.ar  1 <1>  -0.1500 
 22 C       -3.4420     2.7520     0.4960 C.3   1 <1>   0.0400 
 23 O       -6.2200    -0.0150    -0.7200 O.3   1 <1>  -0.3630 
 24 C       -6.3000    -2.5230    -2.0490 C.3   1 <1>   0.0400 
 25 C        1.8370    -7.9710     1.9470 C.ar  1 <1>  -0.1500 
 26 C        3.8130    -6.9190     1.0320 C.ar  1 <1>  -0.1500 
 27 C       -7.1450     0.2030     0.3200 C.3   1 <1>   0.0400 
 28 C        3.1960    -7.9570     1.7030 C.ar  1 <1>   0.1900 
 29 F        3.9240    -8.9590     2.1220 F     1 <1>  -0.1900 
 30 H       -1.0680    -1.9240     2.1050 H     1 <1>   0.0800 
 31 H        1.6310    -1.6670    -1.1940 H     1 <1>   0.0800 
 32 H        0.1200    -1.0900    -1.9070 H     1 <1>   0.0800 
 33 H       -0.7800    -3.2220    -1.7210 H     1 <1>   0.0800 
 34 H       -2.1140     0.6480     1.0420 H     1 <1>   0.1500 
 35 H       -3.2310    -3.3190    -0.0370 H     1 <1>   0.1500 
 36 H        0.0140    -6.9030     1.6890 H     1 <1>   0.1500 
 37 H        3.5060    -5.0480     0.0660 H     1 <1>   0.1500 
 38 H       -3.9170     3.7080     0.3710 H     1 <1>   0.0800 
 39 H       -2.6400     2.6470    -0.2120 H     1 <1>   0.0800 
 40 H       -3.0840     2.6530     1.5050 H     1 <1>   0.0800 
 41 H       -6.5280    -3.4550    -2.5340 H     1 <1>   0.0800 
 42 H       -5.7710    -1.8740    -2.7250 H     1 <1>   0.0800 
 43 H       -7.2080    -2.0590    -1.7110 H     1 <1>   0.0800 
 44 H        1.3920    -8.7950     2.4760 H     1 <1>   0.1500 
 45 H        4.8740    -6.9430     0.8590 H     1 <1>   0.1500 
 46 H       -8.0730     0.5250    -0.1170 H     1 <1>   0.0800 
 47 H       -6.7630     0.9650     0.9760 H     1 <1>   0.0800 
 48 H       -7.2870    -0.7190     0.8560 H     1 <1>   0.0800 
@<TRIPOS>BOND
  1   1   2  1   
  2   1   3  1   
  3   2   4  1   
  4   2   5  1   
  5   2  30  1   
  6   3   6  1   
  7   3  31  1   
  8   3  32  1   
  9   4   6  1   
 10   4   7  am  
 11   5   8  ar  
 12   5   9  ar  
 13   6  10  1   
 14   6  33  1   
 15   7  11  2   
 16   7  12  am  
 17   8  13  ar  
 18   8  34  1   
 19   9  14  ar  
 20   9  35  1   
 21  10  12  am  
 22  10  15  2   
 23  12  16  1   
 24  13  17  1   
 25  13  18  ar  
 26  14  18  ar  
 27  14  19  1   
 28  16  20  ar  
 29  16  21  ar  
 30  17  22  1   
 31  18  23  1   
 32  19  24  1   
 33  20  25  ar  
 34  20  36  1   
 35  21  26  ar  
 36  21  37  1   
 37  22  38  1   
 38  22  39  1   
 39  22  40  1   
 40  23  27  1   
 41  24  41  1   
 42  24  42  1   
 43  24  43  1   
 44  25  28  ar  
 45  25  44  1   
 46  26  28  ar  
 47  26  45  1   
 48  27  46  1   
 49  27  47  1   
 50  27  48  1   
 51  28  29  1   
@<TRIPOS>SUBSTRUCTURE
  1 ****   4 GROUP 4 **** **** 0

# MOE 2024.06 (io_trps.svl 2023.06)
