@<TRIPOS>MOLECULE
(5,6,7,8-Tetrahydro-naphthalen-1-yloxy)-acetic acid
28 29 1 0 0 
SMALL
USER_CHARGES


@<TRIPOS>ATOM
  1 O       -0.3690    -1.1630    -0.5340 O.co2 1 <1>  -0.9000 
  2 C       -1.3670    -0.4500    -0.7110 C.2   1 <1>   0.9060 
  3 O       -1.4370     0.3490    -1.6540 O.co2 1 <1>  -0.9000 
  4 C       -2.4810    -0.4790     0.3320 C.3   1 <1>   0.0140 
  5 O       -3.6690    -1.1730    -0.0630 O.3   1 <1>  -0.3630 
  6 C       -3.8240    -2.5170     0.0920 C.ar  1 <1>   0.0820 
  7 C       -5.1160    -3.0380     0.0160 C.ar  1 <1>  -0.1440 
  8 C       -2.7490    -3.3700     0.3180 C.ar  1 <1>  -0.1500 
  9 C       -5.3210    -4.4070     0.1720 C.ar  1 <1>  -0.1440 
 10 C       -6.2820    -2.0880    -0.2620 C.3   1 <1>  -0.0160 
 11 C       -2.9570    -4.7260     0.4770 C.ar  1 <1>  -0.1500 
 12 C       -4.2380    -5.2400     0.4060 C.ar  1 <1>  -0.1500 
 13 C       -6.7100    -5.0300     0.1050 C.3   1 <1>  -0.0160 
 14 C       -7.6580    -2.7100     0.0070 C.3   1 <1>  -0.1600 
 15 C       -7.7320    -4.1200    -0.5820 C.3   1 <1>  -0.1600 
 16 H       -2.7630     0.5360     0.5250 H     1 <1>   0.0800 
 17 H       -2.1120    -0.9120     1.2410 H     1 <1>   0.0800 
 18 H       -1.7430    -2.9940     0.3600 H     1 <1>   0.1500 
 19 H       -6.2220    -1.7900    -1.2940 H     1 <1>   0.0800 
 20 H       -6.1800    -1.2020     0.3380 H     1 <1>   0.0800 
 21 H       -2.1180    -5.3750     0.6500 H     1 <1>   0.1500 
 22 H       -4.3880    -6.2970     0.5320 H     1 <1>   0.1500 
 23 H       -7.0350    -5.2330     1.1100 H     1 <1>   0.0800 
 24 H       -6.6620    -5.9660    -0.4230 H     1 <1>   0.0800 
 25 H       -8.4220    -2.0870    -0.4230 H     1 <1>   0.0800 
 26 H       -7.8210    -2.7570     1.0700 H     1 <1>   0.0800 
 27 H       -8.7210    -4.5240    -0.4520 H     1 <1>   0.0800 
 28 H       -7.5200    -4.0790    -1.6370 H     1 <1>   0.0800 
@<TRIPOS>BOND
  1   1   2  ar  
  2   2   3  ar  
  3   2   4  1   
  4   4   5  1   
  5   4  16  1   
  6   4  17  1   
  7   5   6  1   
  8   6   7  ar  
  9   6   8  ar  
 10   7   9  ar  
 11   7  10  1   
 12   8  11  ar  
 13   8  18  1   
 14   9  12  ar  
 15   9  13  1   
 16  10  14  1   
 17  10  19  1   
 18  10  20  1   
 19  11  12  ar  
 20  11  21  1   
 21  12  22  1   
 22  13  15  1   
 23  13  23  1   
 24  13  24  1   
 25  14  15  1   
 26  14  25  1   
 27  14  26  1   
 28  15  27  1   
 29  15  28  1   
@<TRIPOS>SUBSTRUCTURE
  1 ****   6 GROUP 4 **** **** 0

# MOE 2024.06 (io_trps.svl 2023.06)
