@<TRIPOS>MOLECULE
5-(3,4-Dimethoxy-phenyl)-2-methylsulfanyl-5,8-dihydro-3H,6H-pyrido[2,3-d]pyrimid
41 43 1 0 0 
SMALL
USER_CHARGES


@<TRIPOS>ATOM
  1 S        0.7360    -0.2920     2.1250 S.3   1 <1>  -0.3710 
  2 C        1.8170     0.7240     1.1530 C.2   1 <1>   0.6410 
  3 C       -0.9630     0.1920     1.5750 C.3   1 <1>  -0.0100 
  4 N        3.1320     0.5250     1.4060 N.pl3 1 <1>  -0.5500 
  5 N        1.3300     1.5470     0.3050 N.2   1 <1>  -0.6610 
  6 C        4.0640     1.2490     0.7360 C.2   1 <1>   0.2090 
  7 C        2.2360     2.2920    -0.3970 C.2   1 <1>   0.7670 
  8 N        5.3970     1.0400     0.9870 N.am  1 <1>  -0.5390 
  9 C        3.6270     2.1620    -0.1670 C.2   1 <1>  -0.1240 
 10 O        1.7960     3.0560    -1.2480 O.2   1 <1>  -0.5700 
 11 C        6.3920     1.6120     0.2620 C.2   1 <1>   0.5690 
 12 C        4.6240     3.0540    -0.8990 C.3   1 <1>   0.2020 
 13 O        7.5420     1.4680     0.5780 O.2   1 <1>  -0.5700 
 14 C        6.0290     2.4190    -0.9710 C.3   1 <1>  -0.0990 
 15 C        4.6470     4.4300    -0.2310 C.ar  1 <1>  -0.1440 
 16 C        4.0200     5.4960    -0.8640 C.ar  1 <1>  -0.1500 
 17 C        5.2530     4.6480     1.0010 C.ar  1 <1>  -0.1500 
 18 C        4.0010     6.7550    -0.2900 C.ar  1 <1>   0.0820 
 19 C        5.2500     5.9070     1.5760 C.ar  1 <1>  -0.1500 
 20 O        3.3370     7.7340    -0.9470 O.3   1 <1>  -0.3630 
 21 C        4.6410     6.9700     0.9350 C.ar  1 <1>   0.0820 
 22 C        2.1050     8.1160    -0.3790 C.3   1 <1>   0.0400 
 23 O        4.6950     8.1820     1.5420 O.3   1 <1>  -0.3630 
 24 C        5.3540     9.2150     0.8430 C.3   1 <1>   0.0400 
 25 H       -1.6710    -0.3920     2.1340 H     1 <1>   0.0800 
 26 H       -1.0400    -0.0100     0.5220 H     1 <1>   0.0800 
 27 H       -1.0870     1.2430     1.7710 H     1 <1>   0.0800 
 28 H        3.3690    -0.1750     2.1070 H     1 <1>   0.4000 
 29 H        5.7110     0.4620     1.7660 H     1 <1>   0.3700 
 30 H        4.2900     3.1790    -1.9160 H     1 <1>   0.0800 
 31 H        6.0640     1.7470    -1.8080 H     1 <1>   0.0800 
 32 H        6.7700     3.1810    -1.1340 H     1 <1>   0.0800 
 33 H        3.5210     5.3610    -1.8080 H     1 <1>   0.1500 
 34 H        5.7350     3.8490     1.5340 H     1 <1>   0.1500 
 35 H        5.7240     6.0720     2.5270 H     1 <1>   0.1500 
 36 H        1.6610     8.8670    -1.0080 H     1 <1>   0.0800 
 37 H        2.2780     8.5140     0.6050 H     1 <1>   0.0800 
 38 H        1.4660     7.2520    -0.3260 H     1 <1>   0.0800 
 39 H        5.4890    10.0430     1.5150 H     1 <1>   0.0800 
 40 H        4.7520     9.5190     0.0060 H     1 <1>   0.0800 
 41 H        6.3090     8.8530     0.5050 H     1 <1>   0.0800 
@<TRIPOS>BOND
  1   1   2  1   
  2   1   3  1   
  3   2   4  1   
  4   2   5  2   
  5   3  25  1   
  6   3  26  1   
  7   3  27  1   
  8   4   6  1   
  9   4  28  1   
 10   5   7  1   
 11   6   8  1   
 12   6   9  2   
 13   7   9  1   
 14   7  10  2   
 15   8  11  am  
 16   8  29  1   
 17   9  12  1   
 18  11  13  2   
 19  11  14  1   
 20  12  14  1   
 21  12  15  1   
 22  12  30  1   
 23  14  31  1   
 24  14  32  1   
 25  15  16  ar  
 26  15  17  ar  
 27  16  18  ar  
 28  16  33  1   
 29  17  19  ar  
 30  17  34  1   
 31  18  20  1   
 32  18  21  ar  
 33  19  21  ar  
 34  19  35  1   
 35  20  22  1   
 36  21  23  1   
 37  22  36  1   
 38  22  37  1   
 39  22  38  1   
 40  23  24  1   
 41  24  39  1   
 42  24  40  1   
 43  24  41  1   
@<TRIPOS>SUBSTRUCTURE
  1 ****  15 GROUP 4 **** **** 0

# MOE 2024.06 (io_trps.svl 2023.06)
