@<TRIPOS>MOLECULE
1-(4-Acetylamino-benzenesulfonyl)-pyrrolidine-2-carboxylic acid (3,4-dimethoxy-p
56 58 1 0 0 
SMALL
USER_CHARGES


@<TRIPOS>ATOM
  1 S       -0.0570     1.1090    -1.3690 S.o2  1 <1>   1.4470 
  2 O       -1.2420     0.7200    -2.0980 O.2   1 <1>  -0.6500 
  3 O        0.7910     2.1610    -1.8980 O.2   1 <1>  -0.6500 
  4 N       -0.5540     1.6390     0.1610 N.am  1 <1>  -0.8490 
  5 C        0.9730    -0.3490    -1.0450 C.ar  1 <1>  -0.0090 
  6 C        0.3700     2.5700     0.8310 C.3   1 <1>   0.3370 
  7 C       -1.8520     2.2960     0.1710 C.3   1 <1>   0.1960 
  8 C        0.9040    -1.0560     0.1520 C.ar  1 <1>  -0.1500 
  9 C        1.8940    -0.7790    -1.9930 C.ar  1 <1>  -0.1500 
 10 C        1.7620     1.9930     1.1960 C.2   1 <1>   0.5690 
 11 C       -0.4630     3.0680     2.0120 C.3   1 <1>  -0.1600 
 12 C       -1.9050     3.0510     1.4980 C.3   1 <1>  -0.1600 
 13 C        1.7650    -2.1050     0.4150 C.ar  1 <1>  -0.1500 
 14 C        2.7630    -1.8230    -1.7320 C.ar  1 <1>  -0.1500 
 15 O        1.9430     1.4980     2.2840 O.2   1 <1>  -0.5700 
 16 N        2.7400     2.0400     0.2340 N.am  1 <1>  -0.5470 
 17 C        2.7290    -2.4810    -0.5120 C.ar  1 <1>   0.1170 
 18 C        4.0030     1.4260     0.2090 C.ar  1 <1>   0.1170 
 19 N        3.6630    -3.4840    -0.2440 N.am  1 <1>  -0.5470 
 20 C        4.5080     1.0010    -1.0120 C.ar  1 <1>  -0.1500 
 21 C        4.7690     1.2210     1.3530 C.ar  1 <1>  -0.1500 
 22 C        4.5130    -3.6280     0.8060 C.2   1 <1>   0.5690 
 23 C        5.7260     0.3510    -1.0980 C.ar  1 <1>   0.0830 
 24 C        5.9910     0.5740     1.2820 C.ar  1 <1>  -0.1500 
 25 O        5.3420    -4.5010     0.7890 O.2   1 <1>  -0.5700 
 26 C        4.4660    -2.6930     1.9930 C.3   1 <1>  -0.1790 
 27 O        6.1340    -0.0350    -2.3340 O.3   1 <1>  -0.3630 
 28 C        6.4670     0.1160     0.0650 C.ar  1 <1>   0.0830 
 29 C        7.3610     0.4890    -2.7960 C.3   1 <1>   0.0400 
 30 O        7.6500    -0.5480     0.0560 O.3   1 <1>  -0.3630 
 31 C        7.5670    -1.9440    -0.1340 C.3   1 <1>   0.0400 
 32 H        0.5310     3.4180     0.1860 H     1 <1>   0.0800 
 33 H       -2.6460     1.5720     0.0880 H     1 <1>   0.0800 
 34 H       -1.9190     2.9910    -0.6510 H     1 <1>   0.0800 
 35 H        0.1820    -0.7740     0.9000 H     1 <1>   0.1500 
 36 H        1.9490    -0.2740    -2.9430 H     1 <1>   0.1500 
 37 H       -0.1490     4.0470     2.3300 H     1 <1>   0.0800 
 38 H       -0.3690     2.3870     2.8400 H     1 <1>   0.0800 
 39 H       -2.5480     2.5400     2.1930 H     1 <1>   0.0800 
 40 H       -2.2830     4.0460     1.3420 H     1 <1>   0.0800 
 41 H        1.6920    -2.6290     1.3500 H     1 <1>   0.1500 
 42 H        3.4880    -2.1130    -2.4720 H     1 <1>   0.1500 
 43 H        2.4280     2.3970    -0.6770 H     1 <1>   0.3700 
 44 H        3.8720    -4.1300    -1.0050 H     1 <1>   0.3700 
 45 H        3.9510     1.1690    -1.9130 H     1 <1>   0.1500 
 46 H        4.4100     1.5640     2.3070 H     1 <1>   0.1500 
 47 H        6.5750     0.4150     2.1700 H     1 <1>   0.1500 
 48 H        3.6910    -3.0030     2.6660 H     1 <1>   0.0800 
 49 H        4.2800    -1.6860     1.6700 H     1 <1>   0.0800 
 50 H        5.4050    -2.7190     2.5120 H     1 <1>   0.0800 
 51 H        7.4260     0.3070    -3.8540 H     1 <1>   0.0800 
 52 H        8.1720    -0.0030    -2.2930 H     1 <1>   0.0800 
 53 H        7.3850     1.5470    -2.6020 H     1 <1>   0.0800 
 54 H        8.5630    -2.3270    -0.2630 H     1 <1>   0.0800 
 55 H        6.9760    -2.1540    -1.0080 H     1 <1>   0.0800 
 56 H        7.1170    -2.3850     0.7360 H     1 <1>   0.0800 
@<TRIPOS>BOND
  1   1   2  2   
  2   1   3  2   
  3   1   4  am  
  4   1   5  1   
  5   4   6  1   
  6   4   7  1   
  7   5   8  ar  
  8   5   9  ar  
  9   6  10  1   
 10   6  11  1   
 11   6  32  1   
 12   7  12  1   
 13   7  33  1   
 14   7  34  1   
 15   8  13  ar  
 16   8  35  1   
 17   9  14  ar  
 18   9  36  1   
 19  10  15  2   
 20  10  16  am  
 21  11  12  1   
 22  11  37  1   
 23  11  38  1   
 24  12  39  1   
 25  12  40  1   
 26  13  17  ar  
 27  13  41  1   
 28  14  17  ar  
 29  14  42  1   
 30  16  18  1   
 31  16  43  1   
 32  17  19  1   
 33  18  20  ar  
 34  18  21  ar  
 35  19  22  am  
 36  19  44  1   
 37  20  23  ar  
 38  20  45  1   
 39  21  24  ar  
 40  21  46  1   
 41  22  25  2   
 42  22  26  1   
 43  23  27  1   
 44  23  28  ar  
 45  24  28  ar  
 46  24  47  1   
 47  26  48  1   
 48  26  49  1   
 49  26  50  1   
 50  27  29  1   
 51  28  30  1   
 52  29  51  1   
 53  29  52  1   
 54  29  53  1   
 55  30  31  1   
 56  31  54  1   
 57  31  55  1   
 58  31  56  1   
@<TRIPOS>SUBSTRUCTURE
  1 ****  18 GROUP 4 **** **** 0

# MOE 2024.06 (io_trps.svl 2023.06)
