@<TRIPOS>MOLECULE
N-Isopropyl-2,6-dimethoxy-N-[3-(4-methoxy-phenyl)-[1,2,4]oxadiazol-5-ylmethyl]-b
55 57 1 0 0 
SMALL
USER_CHARGES


@<TRIPOS>ATOM
  1 O        0.6290     1.0520     1.7780 O.2   1 <1>  -0.5700 
  2 C        0.9400     1.7850     0.8530 C.2   1 <1>   0.5440 
  3 N        2.1590     1.5610     0.2400 N.am  1 <1>  -0.6600 
  4 C        0.0590     2.8720     0.4940 C.ar  1 <1>   0.0860 
  5 C        2.5090     1.8340    -1.1830 C.3   1 <1>   0.2200 
  6 C        3.2640     0.9540     1.0460 C.3   1 <1>   0.3200 
  7 C        0.3920     4.1860     0.8470 C.ar  1 <1>   0.0820 
  8 C       -1.1500     2.6470    -0.1770 C.ar  1 <1>   0.0820 
  9 C        2.6850     3.3280    -1.4500 C.3   1 <1>  -0.2400 
 10 C        1.4900     1.2050    -2.1290 C.3   1 <1>  -0.2400 
 11 C        4.4470     1.9030     1.1740 C.2   1 <1>   0.2980 
 12 O        1.5580     4.3810     1.5110 O.3   1 <1>  -0.3630 
 13 C       -0.4520     5.2420     0.5190 C.ar  1 <1>  -0.1500 
 14 O       -1.4660     1.3690    -0.5020 O.3   1 <1>  -0.3630 
 15 C       -1.9850     3.7130    -0.5000 C.ar  1 <1>  -0.1500 
 16 O        4.3210     2.9590     1.9340 O.3   1 <1>  -0.0190 
 17 N        5.5730     1.7800     0.5960 N.2   1 <1>  -0.5650 
 18 C        2.0760     5.6580     1.8080 C.3   1 <1>   0.0400 
 19 C       -1.6350     5.0040    -0.1540 C.ar  1 <1>  -0.1500 
 20 C       -2.7380     0.9940    -0.9810 C.3   1 <1>   0.0400 
 21 N        5.4620     3.5670     1.8250 N.2   1 <1>  -0.4100 
 22 C        6.2040     2.8740     1.0350 C.2   1 <1>   0.4620 
 23 C        7.5620     3.2080     0.6380 C.ar  1 <1>   0.0540 
 24 C        8.2880     2.4070    -0.2460 C.ar  1 <1>  -0.1500 
 25 C        8.1990     4.3520     1.1260 C.ar  1 <1>  -0.1500 
 26 C        9.5780     2.7310    -0.6230 C.ar  1 <1>  -0.1500 
 27 C        9.4890     4.6830     0.7550 C.ar  1 <1>  -0.1500 
 28 C       10.1900     3.8690    -0.1280 C.ar  1 <1>   0.0820 
 29 O       11.4550     4.1170    -0.5460 O.3   1 <1>  -0.3620 
 30 C       12.1680     5.2480    -0.0990 C.3   1 <1>   0.0400 
 31 H        3.4560     1.3610    -1.3870 H     1 <1>   0.0800 
 32 H        3.5860     0.0460     0.5690 H     1 <1>   0.0800 
 33 H        2.9300     0.7030     2.0360 H     1 <1>   0.0800 
 34 H        1.7410     3.8370    -1.4570 H     1 <1>   0.0800 
 35 H        3.1390     3.4680    -2.4140 H     1 <1>   0.0800 
 36 H        3.3260     3.7700    -0.7090 H     1 <1>   0.0800 
 37 H        0.5640     1.7460    -2.1160 H     1 <1>   0.0800 
 38 H        1.3090     0.1820    -1.8540 H     1 <1>   0.0800 
 39 H        1.8690     1.2270    -3.1340 H     1 <1>   0.0800 
 40 H       -0.2080     6.2540     0.7810 H     1 <1>   0.1500 
 41 H       -2.9100     3.5590    -1.0210 H     1 <1>   0.1500 
 42 H        3.0330     5.5260     2.2800 H     1 <1>   0.0800 
 43 H        1.4030     6.1610     2.4790 H     1 <1>   0.0800 
 44 H        2.1950     6.2090     0.8920 H     1 <1>   0.0800 
 45 H       -2.2860     5.8250    -0.4060 H     1 <1>   0.1500 
 46 H       -2.7570    -0.0770    -1.0680 H     1 <1>   0.0800 
 47 H       -2.8950     1.4430    -1.9450 H     1 <1>   0.0800 
 48 H       -3.4840     1.3160    -0.2760 H     1 <1>   0.0800 
 49 H        7.8370     1.5150    -0.6460 H     1 <1>   0.1500 
 50 H        7.6720     4.9940     1.8110 H     1 <1>   0.1500 
 51 H       10.1210     2.1010    -1.3050 H     1 <1>   0.1500 
 52 H        9.9300     5.5740     1.1600 H     1 <1>   0.1500 
 53 H       13.1400     5.2330    -0.5590 H     1 <1>   0.0800 
 54 H       12.2700     5.1960     0.9710 H     1 <1>   0.0800 
 55 H       11.6370     6.1360    -0.3950 H     1 <1>   0.0800 
@<TRIPOS>BOND
  1   1   2  2   
  2   2   3  am  
  3   2   4  1   
  4   3   5  1   
  5   3   6  1   
  6   4   7  ar  
  7   4   8  ar  
  8   5   9  1   
  9   5  10  1   
 10   5  31  1   
 11   6  11  1   
 12   6  32  1   
 13   6  33  1   
 14   7  12  1   
 15   7  13  ar  
 16   8  14  1   
 17   8  15  ar  
 18   9  34  1   
 19   9  35  1   
 20   9  36  1   
 21  10  37  1   
 22  10  38  1   
 23  10  39  1   
 24  11  16  1   
 25  11  17  2   
 26  12  18  1   
 27  13  19  ar  
 28  13  40  1   
 29  14  20  1   
 30  15  19  ar  
 31  15  41  1   
 32  16  21  1   
 33  17  22  1   
 34  18  42  1   
 35  18  43  1   
 36  18  44  1   
 37  19  45  1   
 38  20  46  1   
 39  20  47  1   
 40  20  48  1   
 41  21  22  2   
 42  22  23  1   
 43  23  24  ar  
 44  23  25  ar  
 45  24  26  ar  
 46  24  49  1   
 47  25  27  ar  
 48  25  50  1   
 49  26  28  ar  
 50  26  51  1   
 51  27  28  ar  
 52  27  52  1   
 53  28  29  1   
 54  29  30  1   
 55  30  53  1   
 56  30  54  1   
 57  30  55  1   
@<TRIPOS>SUBSTRUCTURE
  1 ****  11 GROUP 4 **** **** 0

# MOE 2024.06 (io_trps.svl 2023.06)
