@<TRIPOS>MOLECULE
3-Allyl-8-cyclopentyl-1,6,7-trimethyl-1H,8H-imidazo[2,1-f]purine-2,4-dione
49 52 1 0 0 
SMALL
USER_CHARGES


@<TRIPOS>ATOM
  1 O        0.3240     0.5730    -0.3010 O.2   1 <1>  -0.5750 
  2 C        1.5040     0.8590    -0.2960 C.2   1 <1>   0.6860 
  3 N        1.9220     2.1410    -0.6280 N.am  1 <1>  -0.4260 
  4 N        2.4430    -0.1150     0.0230 N.am  1 <1>  -0.4420 
  5 C        3.2650     2.4620    -0.7350 C.2   1 <1>   0.6990 
  6 C        0.9100     3.2200    -0.7640 C.3   1 <1>   0.2720 
  7 C        3.7800     0.2150    -0.0670 C.2   1 <1>   0.4200 
  8 C        2.0100    -1.4860     0.4250 C.3   1 <1>   0.0520 
  9 O        3.6130     3.5780    -1.0850 O.2   1 <1>  -0.5750 
 10 C        4.2190     1.4450    -0.4310 C.2   1 <1>   0.2700 
 11 C        0.8110     3.9600     0.5570 C.2   1 <1>  -0.2950 
 12 N        4.8520    -0.5930     0.1680 N.pl3 1 <1>  -0.7040 
 13 N        5.6240     1.3790    -0.4160 N.pl3 1 <1>  -0.6330 
 14 C       -0.2220     3.8820     1.4020 C.2   1 <1>  -0.3060 
 15 C        5.9460     0.1430    -0.0550 C.cat 1 <1>   1.0690 
 16 C        6.8060     2.0500    -0.6370 C.2   1 <1>   0.2340 
 17 N        7.2710    -0.0380    -0.0150 N.pl3 1 <1>  -0.5720 
 18 C        7.8170     1.1820    -0.3930 C.2   1 <1>   0.1570 
 19 C        6.8000     3.5020    -1.0740 C.3   1 <1>  -0.1100 
 20 C        8.0350    -1.2750     0.3060 C.3   1 <1>   0.2410 
 21 C        9.3190     1.3950    -0.4900 C.3   1 <1>  -0.1100 
 22 C        8.0540    -2.2030    -0.9060 C.3   1 <1>  -0.1670 
 23 C        7.3750    -2.1010     1.4170 C.3   1 <1>  -0.1670 
 24 C        6.8280    -3.1040    -0.7650 C.3   1 <1>  -0.1670 
 25 C        6.6100    -3.2520     0.7430 C.3   1 <1>  -0.1670 
 26 H       -0.0490     2.8080    -1.0260 H     1 <1>   0.0720 
 27 H        1.1920     3.9030    -1.5480 H     1 <1>   0.0720 
 28 H        1.0230    -1.4570     0.8570 H     1 <1>   0.0720 
 29 H        2.6810    -1.8960     1.1590 H     1 <1>   0.0720 
 30 H        1.9860    -2.1270    -0.4390 H     1 <1>   0.0720 
 31 H        1.6740     4.5730     0.7540 H     1 <1>   0.1430 
 32 H        4.8870    -1.5780     0.4200 H     1 <1>   0.4450 
 33 H       -0.2780     4.4180     2.3350 H     1 <1>   0.1430 
 34 H       -1.0980     3.2770     1.2360 H     1 <1>   0.1430 
 35 H        6.2820     3.6020    -2.0110 H     1 <1>   0.0720 
 36 H        7.8000     3.8760    -1.1940 H     1 <1>   0.0720 
 37 H        6.2960     4.1050    -0.3390 H     1 <1>   0.0720 
 38 H        9.0390    -1.0140     0.5950 H     1 <1>   0.0720 
 39 H        9.7490     0.6950    -1.1840 H     1 <1>   0.0720 
 40 H        9.7770     1.2570     0.4730 H     1 <1>   0.0720 
 41 H        9.5460     2.3880    -0.8310 H     1 <1>   0.0720 
 42 H        8.9350    -2.8200    -0.8450 H     1 <1>   0.0720 
 43 H        8.0770    -1.6740    -1.8430 H     1 <1>   0.0720 
 44 H        6.7560    -1.5100     2.0680 H     1 <1>   0.0720 
 45 H        8.1560    -2.5320     2.0200 H     1 <1>   0.0720 
 46 H        6.9920    -4.0610    -1.2340 H     1 <1>   0.0720 
 47 H        5.9770    -2.6430    -1.2320 H     1 <1>   0.0720 
 48 H        5.5660    -3.2590     0.9990 H     1 <1>   0.0720 
 49 H        7.0330    -4.1890     1.0690 H     1 <1>   0.0720 
@<TRIPOS>BOND
  1   1   2  2   
  2   2   3  am  
  3   2   4  am  
  4   3   5  am  
  5   3   6  1   
  6   4   7  1   
  7   4   8  1   
  8   5   9  2   
  9   5  10  1   
 10   6  11  1   
 11   6  26  1   
 12   6  27  1   
 13   7  10  2   
 14   7  12  1   
 15   8  28  1   
 16   8  29  1   
 17   8  30  1   
 18  10  13  1   
 19  11  14  2   
 20  11  31  1   
 21  12  15  ar  
 22  12  32  1   
 23  13  15  ar  
 24  13  16  1   
 25  14  33  1   
 26  14  34  1   
 27  15  17  ar  
 28  16  18  2   
 29  16  19  1   
 30  17  18  1   
 31  17  20  1   
 32  18  21  1   
 33  19  35  1   
 34  19  36  1   
 35  19  37  1   
 36  20  22  1   
 37  20  23  1   
 38  20  38  1   
 39  21  39  1   
 40  21  40  1   
 41  21  41  1   
 42  22  24  1   
 43  22  42  1   
 44  22  43  1   
 45  23  25  1   
 46  23  44  1   
 47  23  45  1   
 48  24  25  1   
 49  24  46  1   
 50  24  47  1   
 51  25  48  1   
 52  25  49  1   
@<TRIPOS>SUBSTRUCTURE
  1 ****  10 GROUP 4 **** **** 0

# MOE 2024.06 (io_trps.svl 2023.06)
