@<TRIPOS>MOLECULE
1-[1-(4-Chloro-phenyl)-5-oxo-pyrrolidine-3-carbonyl]-piperidine-4-carboxylic aci
49 51 1 0 0 
SMALL
USER_CHARGES


@<TRIPOS>ATOM
  1 CL       0.4400     2.5200    -3.5740 Cl    1 <1>  -0.1770 
  2 C        1.8210     2.7930    -2.5400 C.ar  1 <1>   0.1770 
  3 C        2.8580     1.8800    -2.5350 C.ar  1 <1>  -0.1500 
  4 C        1.8570     3.9190    -1.7400 C.ar  1 <1>  -0.1500 
  5 C        3.9500     2.1040    -1.7150 C.ar  1 <1>  -0.1500 
  6 C        2.9540     4.1330    -0.9220 C.ar  1 <1>  -0.1500 
  7 C        4.0190     3.2320    -0.8990 C.ar  1 <1>   0.1170 
  8 N        5.1390     3.4640    -0.0770 N.am  1 <1>  -0.4770 
  9 C        5.9060     2.5540     0.5920 C.2   1 <1>   0.5690 
 10 C        5.6510     4.8320     0.1560 C.3   1 <1>   0.1400 
 11 O        5.7630     1.3560     0.6120 O.2   1 <1>  -0.5700 
 12 C        7.0300     3.2230     1.3330 C.3   1 <1>  -0.0990 
 13 C        7.0720     4.6210     0.7020 C.3   1 <1>  -0.0190 
 14 C        7.5430     5.7090     1.6620 C.2   1 <1>   0.5690 
 15 O        6.6970     6.3830     2.2020 O.2   1 <1>  -0.5700 
 16 N        8.8810     5.9160     1.9020 N.am  1 <1>  -0.6600 
 17 C       10.0050     5.1040     1.3580 C.3   1 <1>   0.1400 
 18 C        9.3380     7.0590     2.7430 C.3   1 <1>   0.1400 
 19 C       10.8880     5.9940     0.4810 C.3   1 <1>  -0.1600 
 20 C       10.2150     7.9860     1.8970 C.3   1 <1>  -0.1600 
 21 C       11.3940     7.2260     1.2580 C.3   1 <1>  -0.0190 
 22 C       12.2410     8.1380     0.3750 C.2   1 <1>   0.6590 
 23 O       13.3960     8.3550     0.6330 O.2   1 <1>  -0.5700 
 24 O       11.6350     8.6620    -0.6850 O.3   1 <1>  -0.4300 
 25 C       12.2980     9.4990    -1.6070 C.3   1 <1>   0.1200 
 26 C       12.9760     8.6280    -2.6620 C.3   1 <1>  -0.2400 
 27 H        2.8080     1.0080    -3.1610 H     1 <1>   0.1500 
 28 H        1.0370     4.6130    -1.7580 H     1 <1>   0.1500 
 29 H        4.7590     1.3940    -1.7080 H     1 <1>   0.1500 
 30 H        2.9740     5.0040    -0.2940 H     1 <1>   0.1500 
 31 H        5.0140     5.3150     0.8780 H     1 <1>   0.0800 
 32 H        5.6610     5.4010    -0.7570 H     1 <1>   0.0800 
 33 H        7.9500     2.6850     1.2040 H     1 <1>   0.0800 
 34 H        6.7730     3.2730     2.3760 H     1 <1>   0.0800 
 35 H        7.7210     4.6060    -0.1540 H     1 <1>   0.0800 
 36 H        9.6540     4.2670     0.7850 H     1 <1>   0.0800 
 37 H       10.5840     4.7160     2.1800 H     1 <1>   0.0800 
 38 H        9.8980     6.6790     3.5810 H     1 <1>   0.0800 
 39 H        8.5000     7.6140     3.1310 H     1 <1>   0.0800 
 40 H       10.3210     6.3090    -0.3780 H     1 <1>   0.0800 
 41 H       11.7290     5.4230     0.1270 H     1 <1>   0.0800 
 42 H       10.5920     8.7800     2.5180 H     1 <1>   0.0800 
 43 H        9.6040     8.4320     1.1320 H     1 <1>   0.0800 
 44 H       12.0320     6.8780     2.0520 H     1 <1>   0.0800 
 45 H       13.0130    10.1110    -1.0820 H     1 <1>   0.0800 
 46 H       11.5580    10.1340    -2.0620 H     1 <1>   0.0800 
 47 H       13.7240     8.0040    -2.2060 H     1 <1>   0.0800 
 48 H       13.4580     9.2530    -3.3910 H     1 <1>   0.0800 
 49 H       12.2490     8.0150    -3.1630 H     1 <1>   0.0800 
@<TRIPOS>BOND
  1   1   2  1   
  2   2   3  ar  
  3   2   4  ar  
  4   3   5  ar  
  5   3  27  1   
  6   4   6  ar  
  7   4  28  1   
  8   5   7  ar  
  9   5  29  1   
 10   6   7  ar  
 11   6  30  1   
 12   7   8  1   
 13   8   9  am  
 14   8  10  1   
 15   9  11  2   
 16   9  12  1   
 17  10  13  1   
 18  10  31  1   
 19  10  32  1   
 20  12  13  1   
 21  12  33  1   
 22  12  34  1   
 23  13  14  1   
 24  13  35  1   
 25  14  15  2   
 26  14  16  am  
 27  16  17  1   
 28  16  18  1   
 29  17  19  1   
 30  17  36  1   
 31  17  37  1   
 32  18  20  1   
 33  18  38  1   
 34  18  39  1   
 35  19  21  1   
 36  19  40  1   
 37  19  41  1   
 38  20  21  1   
 39  20  42  1   
 40  20  43  1   
 41  21  22  1   
 42  21  44  1   
 43  22  23  2   
 44  22  24  1   
 45  24  25  1   
 46  25  26  1   
 47  25  45  1   
 48  25  46  1   
 49  26  47  1   
 50  26  48  1   
 51  26  49  1   
@<TRIPOS>SUBSTRUCTURE
  1 ****  13 GROUP 4 **** **** 0

# MOE 2024.06 (io_trps.svl 2023.06)
