@<TRIPOS>MOLECULE
N-{4-[4-(2-Pyridin-2-yl-ethyl)-piperazine-1-sulfonyl]-phenyl}-acetamide
52 54 1 0 0 
SMALL
USER_CHARGES


@<TRIPOS>ATOM
  1 S        0.0280    -0.4070    -2.1470 S.o2  1 <1>   1.4470 
  2 O        0.1340    -1.7090    -2.7620 O.2   1 <1>  -0.6500 
  3 O       -0.0310     0.7790    -2.9730 O.2   1 <1>  -0.6500 
  4 N       -1.4470    -0.4180    -1.3010 N.am  1 <1>  -0.8490 
  5 C        1.2750    -0.2330    -0.8410 C.ar  1 <1>  -0.0090 
  6 C       -2.5250    -0.9520    -2.1560 C.3   1 <1>   0.1960 
  7 C       -1.7970     0.9130    -0.7670 C.3   1 <1>   0.1960 
  8 C        2.0420     0.9220    -0.7200 C.ar  1 <1>  -0.1500 
  9 C        1.4910    -1.2490     0.0830 C.ar  1 <1>  -0.1500 
 10 C       -3.8830    -0.9910    -1.4260 C.3   1 <1>   0.3430 
 11 C       -3.1440     0.8960    -0.0090 C.3   1 <1>   0.3430 
 12 C        2.9880     1.0540     0.2810 C.ar  1 <1>  -0.1500 
 13 C        2.4350    -1.1210     1.0860 C.ar  1 <1>  -0.1500 
 14 N       -4.2650     0.3520    -0.8590 N.4   1 <1>  -0.9590 
 15 C        3.2030     0.0310     1.1930 C.ar  1 <1>   0.1170 
 16 C       -5.5570     0.2340    -0.1130 C.3   1 <1>   0.3430 
 17 N        4.1670     0.1830     2.1930 N.am  1 <1>  -0.5470 
 18 C       -6.1680     1.5990     0.2170 C.3   1 <1>  -0.0170 
 19 C        5.1940    -0.6230     2.5680 C.2   1 <1>   0.5690 
 20 C       -7.5510     1.3900     0.7990 C.ar  1 <1>   0.1670 
 21 O        5.9020    -0.3010     3.4850 O.2   1 <1>  -0.5700 
 22 C        5.4850    -1.9140     1.8390 C.3   1 <1>  -0.1790 
 23 N       -8.3170     0.5290     0.1460 N.ar  1 <1>  -0.6200 
 24 C       -7.9460     2.0760     1.9380 C.ar  1 <1>  -0.1500 
 25 C       -9.5300     0.3480     0.6470 C.ar  1 <1>   0.1600 
 26 C       -9.2090     1.8720     2.4500 C.ar  1 <1>  -0.1500 
 27 C      -10.0160     0.9810     1.7770 C.ar  1 <1>  -0.1500 
 28 H       -2.2800    -1.9590    -2.4560 H     1 <1>   0.0800 
 29 H       -2.6110    -0.3600    -3.0530 H     1 <1>   0.0800 
 30 H       -1.8590     1.6340    -1.5660 H     1 <1>   0.0800 
 31 H       -1.0260     1.2410    -0.0900 H     1 <1>   0.0800 
 32 H        1.9040     1.7280    -1.4230 H     1 <1>   0.1500 
 33 H        0.9130    -2.1560     0.0120 H     1 <1>   0.1500 
 34 H       -3.8150    -1.7140    -0.6290 H     1 <1>   0.0800 
 35 H       -4.6420    -1.3280    -2.1120 H     1 <1>   0.0800 
 36 H       -3.3780     1.8970     0.3110 H     1 <1>   0.0800 
 37 H       -3.0290     0.2840     0.8710 H     1 <1>   0.0800 
 38 H        3.5730     1.9550     0.3500 H     1 <1>   0.1500 
 39 H        2.5750    -1.9200     1.7930 H     1 <1>   0.1500 
 40 H       -4.4120     0.9880    -1.6550 H     1 <1>   0.4500 
 41 H       -5.4160    -0.3250     0.7980 H     1 <1>   0.0800 
 42 H       -6.2650    -0.3090    -0.7200 H     1 <1>   0.0800 
 43 H        4.1670     1.0660     2.7040 H     1 <1>   0.3700 
 44 H       -6.2730     2.1820    -0.6800 H     1 <1>   0.0800 
 45 H       -5.5550     2.1310     0.9200 H     1 <1>   0.0800 
 46 H        4.8510    -2.6940     2.2180 H     1 <1>   0.0800 
 47 H        6.5100    -2.1930     2.0000 H     1 <1>   0.0800 
 48 H        5.3220    -1.7950     0.7850 H     1 <1>   0.0800 
 49 H       -7.2840     2.7670     2.4280 H     1 <1>   0.1500 
 50 H      -10.1750    -0.3440     0.1300 H     1 <1>   0.1500 
 51 H       -9.5520     2.3860     3.3330 H     1 <1>   0.1500 
 52 H      -11.0150     0.7790     2.1230 H     1 <1>   0.1500 
@<TRIPOS>BOND
  1   1   2  2   
  2   1   3  2   
  3   1   4  am  
  4   1   5  1   
  5   4   6  1   
  6   4   7  1   
  7   5   8  ar  
  8   5   9  ar  
  9   6  10  1   
 10   6  28  1   
 11   6  29  1   
 12   7  11  1   
 13   7  30  1   
 14   7  31  1   
 15   8  12  ar  
 16   8  32  1   
 17   9  13  ar  
 18   9  33  1   
 19  10  14  1   
 20  10  34  1   
 21  10  35  1   
 22  11  14  1   
 23  11  36  1   
 24  11  37  1   
 25  12  15  ar  
 26  12  38  1   
 27  13  15  ar  
 28  13  39  1   
 29  14  16  1   
 30  14  40  1   
 31  15  17  1   
 32  16  18  1   
 33  16  41  1   
 34  16  42  1   
 35  17  19  am  
 36  17  43  1   
 37  18  20  1   
 38  18  44  1   
 39  18  45  1   
 40  19  21  2   
 41  19  22  1   
 42  20  23  ar  
 43  20  24  ar  
 44  22  46  1   
 45  22  47  1   
 46  22  48  1   
 47  23  25  ar  
 48  24  26  ar  
 49  24  49  1   
 50  25  27  ar  
 51  25  50  1   
 52  26  27  ar  
 53  26  51  1   
 54  27  52  1   
@<TRIPOS>SUBSTRUCTURE
  1 ****   7 GROUP 4 **** **** 0

# MOE 2024.06 (io_trps.svl 2023.06)
