@<TRIPOS>MOLECULE
2-[4-(4-Fluoro-phenyl)-piperazin-1-yl]-4,6-dimethyl-pyrimidine
40 42 1 0 0 
SMALL
USER_CHARGES


@<TRIPOS>ATOM
  1 F       -1.0730     0.9570    -1.3140 F     1 <1>  -0.1900 
  2 C       -2.1260     1.4810    -0.7400 C.ar  1 <1>   0.1900 
  3 C       -3.0770     2.1010    -1.5290 C.ar  1 <1>  -0.1500 
  4 C       -2.2480     1.3940     0.6350 C.ar  1 <1>  -0.1500 
  5 C       -4.1880     2.6520    -0.9150 C.ar  1 <1>  -0.1500 
  6 C       -3.3650     1.9510     1.2330 C.ar  1 <1>  -0.1500 
  7 C       -4.3410     2.5820     0.4690 C.ar  1 <1>   0.1000 
  8 N       -5.4490     3.1310     1.1020 N.pl3 1 <1>  -0.8380 
  9 C       -5.5450     4.6280     1.0660 C.3   1 <1>   0.2090 
 10 C       -6.7650     2.4730     0.8020 C.3   1 <1>   0.2090 
 11 C       -6.6930     5.1590     1.9480 C.3   1 <1>   0.2090 
 12 C       -7.8950     3.0180     1.6940 C.3   1 <1>   0.2090 
 13 N       -7.9900     4.5080     1.5770 N.pl3 1 <1>  -0.8380 
 14 C       -8.8650     5.1150     0.6990 C.ar  1 <1>   0.7200 
 15 N       -8.8460     6.4460     0.6510 N.ar  1 <1>  -0.6200 
 16 N       -9.6460     4.3200    -0.0330 N.ar  1 <1>  -0.6200 
 17 C       -9.6810     7.0150    -0.1790 C.ar  1 <1>   0.1660 
 18 C      -10.4730     4.9090    -0.8570 C.ar  1 <1>   0.1670 
 19 C      -10.5310     6.2780    -0.9680 C.ar  1 <1>  -0.1500 
 20 C       -9.6720     8.5280    -0.2320 C.3   1 <1>  -0.0970 
 21 C      -11.3690     4.0150    -1.6860 C.3   1 <1>  -0.0970 
 22 H       -2.9460     2.1480    -2.5950 H     1 <1>   0.1500 
 23 H       -1.4880     0.9040     1.2150 H     1 <1>   0.1500 
 24 H       -4.9430     3.1400    -1.5020 H     1 <1>   0.1500 
 25 H       -3.4970     1.9050     2.2980 H     1 <1>   0.1500 
 26 H       -5.7100     4.9540     0.0540 H     1 <1>   0.0800 
 27 H       -4.6150     5.0490     1.4050 H     1 <1>   0.0800 
 28 H       -6.6720     1.4120     0.9540 H     1 <1>   0.0800 
 29 H       -7.0270     2.6420    -0.2280 H     1 <1>   0.0800 
 30 H       -6.7490     6.2280     1.8530 H     1 <1>   0.0800 
 31 H       -6.4730     4.9390     2.9770 H     1 <1>   0.0800 
 32 H       -7.6860     2.7600     2.7170 H     1 <1>   0.0800 
 33 H       -8.8260     2.5480     1.4310 H     1 <1>   0.0800 
 34 H      -11.2130     6.7530    -1.6450 H     1 <1>   0.1500 
 35 H       -9.9030     8.9210     0.7410 H     1 <1>   0.0800 
 36 H      -10.3940     8.8950    -0.9370 H     1 <1>   0.0800 
 37 H       -8.6950     8.8700    -0.5200 H     1 <1>   0.0800 
 38 H      -11.9760     3.4130    -1.0340 H     1 <1>   0.0800 
 39 H      -10.7660     3.3660    -2.2940 H     1 <1>   0.0800 
 40 H      -12.0110     4.5930    -2.3240 H     1 <1>   0.0800 
@<TRIPOS>BOND
  1   1   2  1   
  2   2   3  ar  
  3   2   4  ar  
  4   3   5  ar  
  5   3  22  1   
  6   4   6  ar  
  7   4  23  1   
  8   5   7  ar  
  9   5  24  1   
 10   6   7  ar  
 11   6  25  1   
 12   7   8  1   
 13   8   9  1   
 14   8  10  1   
 15   9  11  1   
 16   9  26  1   
 17   9  27  1   
 18  10  12  1   
 19  10  28  1   
 20  10  29  1   
 21  11  13  1   
 22  11  30  1   
 23  11  31  1   
 24  12  13  1   
 25  12  32  1   
 26  12  33  1   
 27  13  14  1   
 28  14  15  ar  
 29  14  16  ar  
 30  15  17  ar  
 31  16  18  ar  
 32  17  19  ar  
 33  17  20  1   
 34  18  19  ar  
 35  18  21  1   
 36  19  34  1   
 37  20  35  1   
 38  20  36  1   
 39  20  37  1   
 40  21  38  1   
 41  21  39  1   
 42  21  40  1   
@<TRIPOS>SUBSTRUCTURE
  1 ****   9 GROUP 4 **** **** 0

# MOE 2024.06 (io_trps.svl 2023.06)
