@<TRIPOS>MOLECULE
8-(2-Methoxy-5-methyl-phenyl)-1,6-dimethyl-3-(2-oxo-propyl)-5,6,7,8-tetrahydro-1
56 59 1 0 0 
SMALL
USER_CHARGES


@<TRIPOS>ATOM
  1 O        0.7490     0.9060     2.5370 O.2   1 <1>  -0.5740 
  2 C        1.7890     1.1450     1.9580 C.2   1 <1>   0.6870 
  3 N        2.0090     2.4110     1.4330 N.am  1 <1>  -0.4250 
  4 N        2.7530     0.1550     1.8200 N.am  1 <1>  -0.4410 
  5 C        3.1930     2.7270     0.7880 C.2   1 <1>   0.7000 
  6 C        0.8150     3.2650     1.1400 C.3   1 <1>   0.1950 
  7 C        3.8880     0.4560     1.0920 C.2   1 <1>   0.4210 
  8 C        2.5270    -1.2190     2.3560 C.3   1 <1>   0.0530 
  9 O        3.4100     3.8700     0.4180 O.2   1 <1>  -0.5740 
 10 C        4.1440     1.6800     0.5830 C.2   1 <1>   0.2710 
 11 C        0.2300     2.9140    -0.2270 C.2   1 <1>   0.4430 
 12 N        4.9200    -0.3700     0.7710 N.pl3 1 <1>  -0.7030 
 13 N        5.3850     1.5830    -0.0630 N.pl3 1 <1>  -0.7670 
 14 O        0.7880     2.1740    -0.9840 O.2   1 <1>  -0.5740 
 15 C       -1.0950     3.5510    -0.5890 C.3   1 <1>  -0.1850 
 16 C        5.8130     0.3340     0.0800 C.cat 1 <1>   1.0690 
 17 C        6.1080     2.6500    -0.7830 C.3   1 <1>   0.3490 
 18 N        6.9790    -0.1070    -0.4280 N.pl3 1 <1>  -0.5790 
 19 C        7.1340     2.0150    -1.7380 C.3   1 <1>  -0.0870 
 20 C        7.4360    -1.4320    -0.2730 C.ar  1 <1>   0.3050 
 21 C        7.9110     0.8750    -1.0500 C.3   1 <1>   0.1610 
 22 C        8.1030     3.0740    -2.2850 C.3   1 <1>  -0.2460 
 23 C        7.6410    -2.0020     0.9920 C.ar  1 <1>   0.0760 
 24 C        7.6780    -2.1980    -1.4050 C.ar  1 <1>  -0.1570 
 25 O        7.3820    -1.2370     2.0930 O.3   1 <1>  -0.3680 
 26 C        8.0860    -3.3150     1.0920 C.ar  1 <1>  -0.1570 
 27 C        8.1190    -3.5060    -1.3030 C.ar  1 <1>  -0.1500 
 28 C        7.9110    -1.5870     3.3580 C.3   1 <1>   0.0330 
 29 C        8.3230    -4.0580    -0.0510 C.ar  1 <1>  -0.1570 
 30 C        8.3840    -4.3380    -2.5460 C.3   1 <1>  -0.1030 
 31 H        1.0960     4.3030     1.1490 H     1 <1>   0.0730 
 32 H        0.0640     3.1250     1.8970 H     1 <1>   0.0730 
 33 H        1.8070    -1.1980     3.1570 H     1 <1>   0.0730 
 34 H        3.4440    -1.6260     2.7420 H     1 <1>   0.0730 
 35 H        2.1520    -1.8550     1.5730 H     1 <1>   0.0730 
 36 H        5.0880    -1.3290     1.0660 H     1 <1>   0.4450 
 37 H       -1.3920     3.2350    -1.5730 H     1 <1>   0.0730 
 38 H       -1.0040     4.6210    -0.5830 H     1 <1>   0.0730 
 39 H       -1.8510     3.2510     0.1130 H     1 <1>   0.0730 
 40 H        6.6060     3.2800    -0.0640 H     1 <1>   0.0730 
 41 H        5.4120     3.2560    -1.3410 H     1 <1>   0.0730 
 42 H        6.6010     1.6010    -2.5770 H     1 <1>   0.0730 
 43 H        8.5360     0.3810    -1.7750 H     1 <1>   0.0730 
 44 H        8.5500     1.2770    -0.2820 H     1 <1>   0.0730 
 45 H        8.6760     3.5230    -1.4910 H     1 <1>   0.0730 
 46 H        7.5610     3.8510    -2.7970 H     1 <1>   0.0730 
 47 H        8.7870     2.6290    -2.9880 H     1 <1>   0.0730 
 48 H        7.5180    -1.7690    -2.3780 H     1 <1>   0.1430 
 49 H        8.2540    -3.7850     2.0440 H     1 <1>   0.1430 
 50 H        7.7170    -0.7790     4.0400 H     1 <1>   0.0730 
 51 H        8.9730    -1.7370     3.2660 H     1 <1>   0.0730 
 52 H        7.4280    -2.4820     3.7090 H     1 <1>   0.0730 
 53 H        8.6690    -5.0750     0.0370 H     1 <1>   0.1430 
 54 H        7.9710    -3.8710    -3.4210 H     1 <1>   0.0730 
 55 H        7.9410    -5.3120    -2.4410 H     1 <1>   0.0730 
 56 H        9.4440    -4.4560    -2.6870 H     1 <1>   0.0730 
@<TRIPOS>BOND
  1   1   2  2   
  2   2   3  am  
  3   2   4  am  
  4   3   5  am  
  5   3   6  1   
  6   4   7  1   
  7   4   8  1   
  8   5   9  2   
  9   5  10  1   
 10   6  11  1   
 11   6  31  1   
 12   6  32  1   
 13   7  10  2   
 14   7  12  1   
 15   8  33  1   
 16   8  34  1   
 17   8  35  1   
 18  10  13  1   
 19  11  14  2   
 20  11  15  1   
 21  12  16  ar  
 22  12  36  1   
 23  13  16  ar  
 24  13  17  1   
 25  15  37  1   
 26  15  38  1   
 27  15  39  1   
 28  16  18  ar  
 29  17  19  1   
 30  17  40  1   
 31  17  41  1   
 32  18  20  1   
 33  18  21  1   
 34  19  21  1   
 35  19  22  1   
 36  19  42  1   
 37  20  23  ar  
 38  20  24  ar  
 39  21  43  1   
 40  21  44  1   
 41  22  45  1   
 42  22  46  1   
 43  22  47  1   
 44  23  25  1   
 45  23  26  ar  
 46  24  27  ar  
 47  24  48  1   
 48  25  28  1   
 49  26  29  ar  
 50  26  49  1   
 51  27  29  ar  
 52  27  30  1   
 53  28  50  1   
 54  28  51  1   
 55  28  52  1   
 56  29  53  1   
 57  30  54  1   
 58  30  55  1   
 59  30  56  1   
@<TRIPOS>SUBSTRUCTURE
  1 ****  12 GROUP 4 **** **** 0

# MOE 2024.06 (io_trps.svl 2023.06)
