@<TRIPOS>MOLECULE
2-Acetylamino-N-[2-(2,6-dimethyl-phenoxy)-ethyl]-3-(1H-indol-3-yl)-propionamide
56 58 1 0 0 
SMALL
USER_CHARGES


@<TRIPOS>ATOM
  1 O        0.0410    -3.5280     1.0770 O.2   1 <1>  -0.5700 
  2 C       -0.1280    -2.6070     0.2810 C.2   1 <1>   0.5690 
  3 N        0.8760    -1.7280     0.0240 N.am  1 <1>  -0.7300 
  4 C       -1.4810    -2.4310    -0.4660 C.3   1 <1>   0.2810 
  5 C        2.2120    -1.7320     0.6630 C.3   1 <1>   0.1400 
  6 N       -2.1120    -1.1100    -0.3040 N.am  1 <1>  -0.7300 
  7 C       -2.4990    -3.5200    -0.0780 C.3   1 <1>   0.0210 
  8 C        3.1430    -2.6860    -0.0800 C.3   1 <1>   0.1200 
  9 C       -1.6850     0.0080    -0.8750 C.2   1 <1>   0.5690 
 10 C       -3.8930    -3.3190    -0.5950 C.2   1 <1>  -0.1810 
 11 O        4.3850    -2.7060     0.5860 O.3   1 <1>  -0.3630 
 12 O       -0.6370     0.0660    -1.5040 O.2   1 <1>  -0.5700 
 13 C       -2.5640     1.2300    -0.7150 C.3   1 <1>  -0.1790 
 14 C       -4.9690    -2.5140    -0.0180 C.ar  1 <1>   0.0000 
 15 C       -4.3950    -3.8340    -1.7390 C.2   1 <1>  -0.3020 
 16 C        5.1790    -3.7660     0.3140 C.ar  1 <1>   0.0820 
 17 C       -6.0950    -2.5710    -0.8890 C.ar  1 <1>  -0.1520 
 18 C       -5.1030    -1.7390     1.1550 C.ar  1 <1>  -0.1500 
 19 N       -5.6930    -3.4030    -1.9130 N.pl3 1 <1>   0.0330 
 20 C        5.0100    -4.9550     1.0220 C.ar  1 <1>  -0.1440 
 21 C        6.1620    -3.6520    -0.6650 C.ar  1 <1>  -0.1440 
 22 C       -7.2870    -1.8770    -0.6230 C.ar  1 <1>  -0.1500 
 23 C       -6.2920    -1.0390     1.4340 C.ar  1 <1>  -0.1500 
 24 C        5.8180    -6.0380     0.7190 C.ar  1 <1>  -0.1500 
 25 C        3.9620    -5.0850     2.1200 C.3   1 <1>  -0.0970 
 26 C        6.9590    -4.7480    -0.9510 C.ar  1 <1>  -0.1500 
 27 C        6.3730    -2.3470    -1.4200 C.3   1 <1>  -0.0970 
 28 C       -7.3810    -1.1040     0.5460 C.ar  1 <1>  -0.1500 
 29 C        6.7860    -5.9370    -0.2650 C.ar  1 <1>  -0.1500 
 30 H        0.6610    -0.9390    -0.6100 H     1 <1>   0.3700 
 31 H       -1.2650    -2.5580    -1.5270 H     1 <1>   0.0800 
 32 H        2.1130    -2.0590     1.6840 H     1 <1>   0.0800 
 33 H        2.6170    -0.7360     0.6490 H     1 <1>   0.0800 
 34 H       -3.0230    -1.1030     0.1300 H     1 <1>   0.3700 
 35 H       -2.5590    -3.5640     1.0100 H     1 <1>   0.0800 
 36 H       -2.1250    -4.4860    -0.4210 H     1 <1>   0.0800 
 37 H        3.3080    -2.3570    -1.0890 H     1 <1>   0.0800 
 38 H        2.7320    -3.6800    -0.0780 H     1 <1>   0.0800 
 39 H       -3.5550     1.0150    -1.1140 H     1 <1>   0.0800 
 40 H       -2.1240     2.0650    -1.2600 H     1 <1>   0.0800 
 41 H       -2.6430     1.4810     0.3410 H     1 <1>   0.0800 
 42 H       -3.8580    -4.4790    -2.4200 H     1 <1>   0.1500 
 43 H       -4.2820    -1.6900     1.8550 H     1 <1>   0.1500 
 44 H       -6.2590    -3.6690    -2.7060 H     1 <1>   0.2700 
 45 H       -8.1230    -1.9390    -1.3050 H     1 <1>   0.1500 
 46 H       -6.3720    -0.4510     2.3380 H     1 <1>   0.1500 
 47 H        5.7000    -6.9670     1.2480 H     1 <1>   0.1500 
 48 H        3.9480    -4.1960     2.7250 H     1 <1>   0.0800 
 49 H        4.1780    -5.9210     2.7580 H     1 <1>   0.0800 
 50 H        2.9880    -5.2240     1.6870 H     1 <1>   0.0800 
 51 H        7.7210    -4.6820    -1.7080 H     1 <1>   0.1500 
 52 H        5.5850    -2.2100    -2.1380 H     1 <1>   0.0800 
 53 H        7.3150    -2.3510    -1.9370 H     1 <1>   0.0800 
 54 H        6.3670    -1.5200    -0.7340 H     1 <1>   0.0800 
 55 H       -8.2920    -0.5640     0.7660 H     1 <1>   0.1500 
 56 H        7.4090    -6.7840    -0.4930 H     1 <1>   0.1500 
@<TRIPOS>BOND
  1   1   2  2   
  2   2   3  am  
  3   2   4  1   
  4   3   5  1   
  5   3  30  1   
  6   4   6  1   
  7   4   7  1   
  8   4  31  1   
  9   5   8  1   
 10   5  32  1   
 11   5  33  1   
 12   6   9  am  
 13   6  34  1   
 14   7  10  1   
 15   7  35  1   
 16   7  36  1   
 17   8  11  1   
 18   8  37  1   
 19   8  38  1   
 20   9  12  2   
 21   9  13  1   
 22  10  14  1   
 23  10  15  2   
 24  11  16  1   
 25  13  39  1   
 26  13  40  1   
 27  13  41  1   
 28  14  17  ar  
 29  14  18  ar  
 30  15  19  1   
 31  15  42  1   
 32  16  20  ar  
 33  16  21  ar  
 34  17  19  1   
 35  17  22  ar  
 36  18  23  ar  
 37  18  43  1   
 38  19  44  1   
 39  20  24  ar  
 40  20  25  1   
 41  21  26  ar  
 42  21  27  1   
 43  22  28  ar  
 44  22  45  1   
 45  23  28  ar  
 46  23  46  1   
 47  24  29  ar  
 48  24  47  1   
 49  25  48  1   
 50  25  49  1   
 51  25  50  1   
 52  26  29  ar  
 53  26  51  1   
 54  27  52  1   
 55  27  53  1   
 56  27  54  1   
 57  28  55  1   
 58  29  56  1   
@<TRIPOS>SUBSTRUCTURE
  1 ****   2 GROUP 4 **** **** 0

# MOE 2024.06 (io_trps.svl 2023.06)
