@<TRIPOS>MOLECULE
1,3,7-Trimethyl-8-[2-(2-piperidin-1-yl-ethoxy)-phenyl]-1H,8H-imidazo[2,1-f]purin
62 66 1 0 0 
SMALL
USER_CHARGES


@<TRIPOS>ATOM
  1 O        2.3410     1.8470     3.5420 O.2   1 <1>  -0.5740 
  2 C        3.2020     1.8230     2.6860 C.2   1 <1>   0.6870 
  3 N        3.6450     3.0100     2.1100 N.am  1 <1>  -0.4250 
  4 N        3.7350     0.6050     2.2770 N.am  1 <1>  -0.4400 
  5 C        4.5660     3.0050     1.0700 C.2   1 <1>   0.7000 
  6 C        3.0800     4.3080     2.5960 C.3   1 <1>   0.0540 
  7 C        4.6520     0.6080     1.2440 C.2   1 <1>   0.4220 
  8 C        3.2840    -0.6680     2.9150 C.3   1 <1>   0.0540 
  9 O        4.9280     4.0430     0.5420 O.2   1 <1>  -0.5740 
 10 C        5.0730     1.7450     0.6370 C.2   1 <1>   0.2720 
 11 N        5.2630    -0.4670     0.6610 N.pl3 1 <1>  -0.7030 
 12 N        5.9760     1.3480    -0.3590 N.pl3 1 <1>  -0.6320 
 13 C        6.0470     0.0260    -0.3050 C.cat 1 <1>   1.0690 
 14 C        6.7830     1.7520    -1.4070 C.2   1 <1>   0.2240 
 15 N        6.8600    -0.4680    -1.2440 N.pl3 1 <1>  -0.5540 
 16 C        7.3250     0.6370    -1.9460 C.2   1 <1>   0.1590 
 17 C        7.1570    -1.8310    -1.4510 C.ar  1 <1>   0.3060 
 18 C        8.2800     0.4920    -3.1160 C.3   1 <1>  -0.1080 
 19 C        8.2460    -2.4500    -0.8250 C.ar  1 <1>   0.0760 
 20 C        6.3320    -2.5710    -2.2850 C.ar  1 <1>  -0.1560 
 21 O        9.0610    -1.6910    -0.0300 O.3   1 <1>  -0.3670 
 22 C        8.4660    -3.8110    -1.0310 C.ar  1 <1>  -0.1560 
 23 C        6.5640    -3.9180    -2.4890 C.ar  1 <1>  -0.1560 
 24 C       10.3150    -2.1930     0.3970 C.3   1 <1>   0.1140 
 25 C        7.6270    -4.5360    -1.8580 C.ar  1 <1>  -0.1560 
 26 C       11.0950    -1.0680     1.0920 C.3   1 <1>   0.3380 
 27 N       12.4190    -1.5270     1.6230 N.4   1 <1>  -0.9610 
 28 C       13.0060    -0.4870     2.5200 C.3   1 <1>   0.3380 
 29 C       13.3810    -1.8920     0.5390 C.3   1 <1>   0.3380 
 30 C       14.2680    -1.0370     3.1870 C.3   1 <1>  -0.1660 
 31 C       14.6520    -2.4770     1.1550 C.3   1 <1>  -0.1660 
 32 C       15.2970    -1.5060     2.1510 C.3   1 <1>  -0.1660 
 33 H        2.9150     4.2690     3.6590 H     1 <1>   0.0740 
 34 H        2.1410     4.4990     2.1060 H     1 <1>   0.0740 
 35 H        3.7540     5.1230     2.3920 H     1 <1>   0.0740 
 36 H        2.9630    -0.4870     3.9280 H     1 <1>   0.0740 
 37 H        4.0860    -1.3830     2.9450 H     1 <1>   0.0740 
 38 H        2.4560    -1.0770     2.3620 H     1 <1>   0.0740 
 39 H        5.1390    -1.4560     0.8660 H     1 <1>   0.4460 
 40 H        6.9010     2.7900    -1.6810 H     1 <1>   0.1440 
 41 H        8.5250     1.4570    -3.5240 H     1 <1>   0.0740 
 42 H        9.1880     0.0130    -2.7970 H     1 <1>   0.0740 
 43 H        7.8290    -0.1030    -3.8900 H     1 <1>   0.0740 
 44 H        5.5040    -2.0990    -2.7840 H     1 <1>   0.1440 
 45 H        9.2770    -4.3380    -0.5640 H     1 <1>   0.1440 
 46 H        5.9200    -4.4910    -3.1390 H     1 <1>   0.1440 
 47 H       10.8450    -2.5400    -0.4730 H     1 <1>   0.0740 
 48 H       10.1350    -3.0030     1.0810 H     1 <1>   0.0740 
 49 H        7.8020    -5.5880    -2.0170 H     1 <1>   0.1440 
 50 H       10.4990    -0.7010     1.9110 H     1 <1>   0.0740 
 51 H       11.2520    -0.2620     0.3950 H     1 <1>   0.0740 
 52 H       12.2860    -2.3640     2.2060 H     1 <1>   0.4460 
 53 H       12.2940    -0.2080     3.2800 H     1 <1>   0.0740 
 54 H       13.2560     0.3910     1.9470 H     1 <1>   0.0740 
 55 H       13.6310    -1.0160    -0.0380 H     1 <1>   0.0740 
 56 H       12.9420    -2.6210    -0.1220 H     1 <1>   0.0740 
 57 H       14.0040    -1.8520     3.8380 H     1 <1>   0.0740 
 58 H       14.7060    -0.2670     3.7980 H     1 <1>   0.0740 
 59 H       15.3550    -2.6960     0.3700 H     1 <1>   0.0740 
 60 H       14.4180    -3.4050     1.6460 H     1 <1>   0.0740 
 61 H       16.1250    -1.9850     2.6470 H     1 <1>   0.0740 
 62 H       15.6840    -0.6520     1.6200 H     1 <1>   0.0740 
@<TRIPOS>BOND
  1   1   2  2   
  2   2   3  am  
  3   2   4  am  
  4   3   5  am  
  5   3   6  1   
  6   4   7  1   
  7   4   8  1   
  8   5   9  2   
  9   5  10  1   
 10   6  33  1   
 11   6  34  1   
 12   6  35  1   
 13   7  10  2   
 14   7  11  1   
 15   8  36  1   
 16   8  37  1   
 17   8  38  1   
 18  10  12  1   
 19  11  13  ar  
 20  11  39  1   
 21  12  13  ar  
 22  12  14  1   
 23  13  15  ar  
 24  14  16  2   
 25  14  40  1   
 26  15  16  1   
 27  15  17  1   
 28  16  18  1   
 29  17  19  ar  
 30  17  20  ar  
 31  18  41  1   
 32  18  42  1   
 33  18  43  1   
 34  19  21  1   
 35  19  22  ar  
 36  20  23  ar  
 37  20  44  1   
 38  21  24  1   
 39  22  25  ar  
 40  22  45  1   
 41  23  25  ar  
 42  23  46  1   
 43  24  26  1   
 44  24  47  1   
 45  24  48  1   
 46  25  49  1   
 47  26  27  1   
 48  26  50  1   
 49  26  51  1   
 50  27  28  1   
 51  27  29  1   
 52  27  52  1   
 53  28  30  1   
 54  28  53  1   
 55  28  54  1   
 56  29  31  1   
 57  29  55  1   
 58  29  56  1   
 59  30  32  1   
 60  30  57  1   
 61  30  58  1   
 62  31  32  1   
 63  31  59  1   
 64  31  60  1   
 65  32  61  1   
 66  32  62  1   
@<TRIPOS>SUBSTRUCTURE
  1 ****  13 GROUP 4 **** **** 0

# MOE 2024.06 (io_trps.svl 2023.06)
