@<TRIPOS>MOLECULE
N-[3-(4-Benzo[1,3]dioxol-5-ylmethyl-piperazine-1-carbonyl)-phenyl]-acetamide
52 55 1 0 0 
SMALL
USER_CHARGES


@<TRIPOS>ATOM
  1 O        0.7100    -1.5730    -0.4800 O.2   1 <1>  -0.5700 
  2 C        0.3910    -2.5700     0.1390 C.2   1 <1>   0.5440 
  3 N        1.4150    -3.2940     0.7030 N.am  1 <1>  -0.6600 
  4 C       -0.9980    -3.0000     0.2210 C.ar  1 <1>   0.0860 
  5 C        1.8120    -4.5730     0.0510 C.3   1 <1>   0.1400 
  6 C        2.5690    -2.5480     1.2870 C.3   1 <1>   0.1400 
  7 C       -1.9740    -2.4460    -0.6070 C.ar  1 <1>  -0.1500 
  8 C       -1.4130    -3.9770     1.1300 C.ar  1 <1>  -0.1500 
  9 C        2.8800    -4.3050    -1.0330 C.3   1 <1>   0.3430 
 10 C        3.6290    -2.2710     0.2050 C.3   1 <1>   0.3430 
 11 C       -3.3030    -2.8400    -0.5520 C.ar  1 <1>   0.1170 
 12 C       -2.7300    -4.3910     1.1910 C.ar  1 <1>  -0.1500 
 13 N        4.0600    -3.5350    -0.5030 N.4   1 <1>  -0.9590 
 14 N       -4.2390    -2.2520    -1.4100 N.am  1 <1>  -0.5470 
 15 C       -3.6700    -3.8300     0.3490 C.ar  1 <1>  -0.1500 
 16 C        5.0370    -3.2280    -1.5820 C.3   1 <1>   0.4860 
 17 C       -5.4600    -1.7090    -1.1610 C.2   1 <1>   0.5690 
 18 C        6.3000    -2.6870    -0.9420 C.ar  1 <1>  -0.1430 
 19 O       -6.1310    -1.3010    -2.0710 O.2   1 <1>  -0.5700 
 20 C       -5.9900    -1.5840     0.2490 C.3   1 <1>  -0.1790 
 21 C        7.1610    -3.5520    -0.2710 C.ar  1 <1>  -0.1500 
 22 C        6.5990    -1.3250    -1.0210 C.ar  1 <1>  -0.1500 
 23 C        8.2910    -3.0190     0.3150 C.ar  1 <1>   0.0830 
 24 C        7.7450    -0.8110    -0.4250 C.ar  1 <1>  -0.1500 
 25 O        9.2400    -3.6560     1.0070 O.3   1 <1>  -0.3630 
 26 C        8.5760    -1.6880     0.2420 C.ar  1 <1>   0.0830 
 27 C       10.2020    -2.6710     1.3840 C.3   1 <1>   0.4000 
 28 O        9.7180    -1.4260     0.8830 O.3   1 <1>  -0.3620 
 29 H        0.9510    -5.0330    -0.4040 H     1 <1>   0.0800 
 30 H        2.1960    -5.2520     0.7920 H     1 <1>   0.0800 
 31 H        2.9980    -3.1150     2.0950 H     1 <1>   0.0800 
 32 H        2.2230    -1.6110     1.6910 H     1 <1>   0.0800 
 33 H       -1.6910    -1.6800    -1.3080 H     1 <1>   0.1500 
 34 H       -0.6990    -4.4170     1.8040 H     1 <1>   0.1500 
 35 H        2.4130    -3.7430    -1.8260 H     1 <1>   0.0800 
 36 H        3.2080    -5.2460    -1.4440 H     1 <1>   0.0800 
 37 H        4.4810    -1.7920     0.6600 H     1 <1>   0.0800 
 38 H        3.2040    -1.5820    -0.5080 H     1 <1>   0.0800 
 39 H       -3.0270    -5.1510     1.8950 H     1 <1>   0.1500 
 40 H        4.5550    -4.1110     0.1890 H     1 <1>   0.4500 
 41 H       -3.9690    -2.1560    -2.3900 H     1 <1>   0.3700 
 42 H       -4.6910    -4.1650     0.3900 H     1 <1>   0.1500 
 43 H        4.6250    -2.5020    -2.2640 H     1 <1>   0.0800 
 44 H        5.2750    -4.1220    -2.1350 H     1 <1>   0.0800 
 45 H       -5.1930    -1.3490     0.9300 H     1 <1>   0.0800 
 46 H       -6.4590    -2.5030     0.5420 H     1 <1>   0.0800 
 47 H       -6.7190    -0.7960     0.2870 H     1 <1>   0.0800 
 48 H        6.9870    -4.6100    -0.1940 H     1 <1>   0.1500 
 49 H        5.9480    -0.6460    -1.5480 H     1 <1>   0.1500 
 50 H        7.9940     0.2350    -0.4750 H     1 <1>   0.1500 
 51 H       11.1500    -2.8990     0.9300 H     1 <1>   0.0800 
 52 H       10.2760    -2.6260     2.4570 H     1 <1>   0.0800 
@<TRIPOS>BOND
  1   1   2  2   
  2   2   3  am  
  3   2   4  1   
  4   3   5  1   
  5   3   6  1   
  6   4   7  ar  
  7   4   8  ar  
  8   5   9  1   
  9   5  29  1   
 10   5  30  1   
 11   6  10  1   
 12   6  31  1   
 13   6  32  1   
 14   7  11  ar  
 15   7  33  1   
 16   8  12  ar  
 17   8  34  1   
 18   9  13  1   
 19   9  35  1   
 20   9  36  1   
 21  10  13  1   
 22  10  37  1   
 23  10  38  1   
 24  11  14  1   
 25  11  15  ar  
 26  12  15  ar  
 27  12  39  1   
 28  13  16  1   
 29  13  40  1   
 30  14  17  am  
 31  14  41  1   
 32  15  42  1   
 33  16  18  1   
 34  16  43  1   
 35  16  44  1   
 36  17  19  2   
 37  17  20  1   
 38  18  21  ar  
 39  18  22  ar  
 40  20  45  1   
 41  20  46  1   
 42  20  47  1   
 43  21  23  ar  
 44  21  48  1   
 45  22  24  ar  
 46  22  49  1   
 47  23  25  1   
 48  23  26  ar  
 49  24  26  ar  
 50  24  50  1   
 51  25  27  1   
 52  26  28  1   
 53  27  28  1   
 54  27  51  1   
 55  27  52  1   
@<TRIPOS>SUBSTRUCTURE
  1 ****   3 GROUP 4 **** **** 0

# MOE 2024.06 (io_trps.svl 2023.06)
