@<TRIPOS>MOLECULE
Indan-5-yl-acetic acid
24 25 1 0 0 
SMALL
USER_CHARGES


@<TRIPOS>ATOM
  1 O        0.6900    -0.2650     0.2290 O.co2 1 <1>  -0.9000 
  2 C        0.6110    -1.4590     0.5430 C.2   1 <1>   0.9060 
  3 O        1.1620    -1.9120     1.5540 O.co2 1 <1>  -0.9000 
  4 C       -0.1110    -2.4160    -0.3870 C.3   1 <1>  -0.1230 
  5 C       -1.6330    -2.4440    -0.2400 C.ar  1 <1>  -0.1440 
  6 C       -2.2980    -3.6420    -0.0190 C.ar  1 <1>  -0.1500 
  7 C       -2.3620    -1.2660    -0.3420 C.ar  1 <1>  -0.1500 
  8 C       -3.6770    -3.6450     0.0900 C.ar  1 <1>  -0.1440 
  9 C       -3.7450    -1.2750    -0.2310 C.ar  1 <1>  -0.1500 
 10 C       -4.3910    -2.4780    -0.0160 C.ar  1 <1>  -0.1440 
 11 C       -4.5840    -4.8230     0.3310 C.3   1 <1>  -0.0160 
 12 C       -5.8700    -2.7240     0.1390 C.3   1 <1>  -0.0160 
 13 C       -5.9880    -4.2560     0.0520 C.3   1 <1>  -0.1600 
 14 H        0.2950    -3.3930    -0.2150 H     1 <1>   0.0800 
 15 H        0.1350    -2.1300    -1.3900 H     1 <1>   0.0800 
 16 H       -1.7460    -4.5600     0.0700 H     1 <1>   0.1500 
 17 H       -1.8400    -0.3370    -0.5020 H     1 <1>   0.1500 
 18 H       -4.2980    -0.3580    -0.3090 H     1 <1>   0.1500 
 19 H       -4.4950    -5.1350     1.3570 H     1 <1>   0.0800 
 20 H       -4.3480    -5.6420    -0.3250 H     1 <1>   0.0800 
 21 H       -6.4340    -2.2380    -0.6370 H     1 <1>   0.0800 
 22 H       -6.1890    -2.3710     1.1040 H     1 <1>   0.0800 
 23 H       -6.7190    -4.6410     0.7400 H     1 <1>   0.0800 
 24 H       -6.2730    -4.5230    -0.9510 H     1 <1>   0.0800 
@<TRIPOS>BOND
  1   1   2  ar  
  2   2   3  ar  
  3   2   4  1   
  4   4   5  1   
  5   4  14  1   
  6   4  15  1   
  7   5   6  ar  
  8   5   7  ar  
  9   6   8  ar  
 10   6  16  1   
 11   7   9  ar  
 12   7  17  1   
 13   8  10  ar  
 14   8  11  1   
 15   9  10  ar  
 16   9  18  1   
 17  10  12  1   
 18  11  13  1   
 19  11  19  1   
 20  11  20  1   
 21  12  13  1   
 22  12  21  1   
 23  12  22  1   
 24  13  23  1   
 25  13  24  1   
@<TRIPOS>SUBSTRUCTURE
  1 ****   5 GROUP 4 **** **** 0

# MOE 2024.06 (io_trps.svl 2023.06)
