@<TRIPOS>MOLECULE
1-Allyl-3-ethyl-1-(3-p-tolyl-[1,2,4]oxadiazol-5-ylmethyl)-urea
42 43 1 0 0 
SMALL
USER_CHARGES


@<TRIPOS>ATOM
  1 O        0.1080     0.2860    -0.0050 O.2   1 <1>  -0.5700 
  2 C        0.4070     1.4650     0.0310 C.2   1 <1>   0.6900 
  3 N        1.6890     1.8590    -0.2120 N.am  1 <1>  -0.6600 
  4 N       -0.5320     2.3960     0.3220 N.am  1 <1>  -0.7300 
  5 C        2.7690     0.8280    -0.3230 C.3   1 <1>   0.3200 
  6 C        2.0250     3.2170    -0.7030 C.3   1 <1>   0.2780 
  7 C       -1.9430     2.1020     0.6310 C.3   1 <1>   0.1400 
  8 C        4.0900     1.2730     0.2900 C.2   1 <1>   0.2980 
  9 C        2.4800     4.0710     0.4650 C.2   1 <1>  -0.2880 
 10 C       -2.7990     3.2680     0.1510 C.3   1 <1>  -0.2400 
 11 O        4.1830     1.3450     1.5920 O.3   1 <1>  -0.0190 
 12 N        5.1420     1.5870    -0.3510 N.2   1 <1>  -0.5650 
 13 C        3.6580     4.6960     0.5490 C.2   1 <1>  -0.3000 
 14 N        5.3990     1.7420     1.8000 N.2   1 <1>  -0.4100 
 15 C        5.9680     1.8940     0.6560 C.2   1 <1>   0.4620 
 16 C        7.3330     2.3450     0.4420 C.ar  1 <1>   0.0540 
 17 C        8.1530     2.7050     1.5120 C.ar  1 <1>  -0.1500 
 18 C        7.8840     2.4410    -0.8370 C.ar  1 <1>  -0.1500 
 19 C        9.4520     3.1390     1.3180 C.ar  1 <1>  -0.1500 
 20 C        9.1820     2.8740    -1.0370 C.ar  1 <1>  -0.1500 
 21 C        9.9760     3.2280     0.0400 C.ar  1 <1>  -0.1440 
 22 C       11.4010     3.7020    -0.1770 C.3   1 <1>  -0.0970 
 23 H       -0.2070     3.3290     0.5590 H     1 <1>   0.3700 
 24 H        2.9260     0.6050    -1.3630 H     1 <1>   0.0800 
 25 H        2.4680    -0.0810     0.1670 H     1 <1>   0.0800 
 26 H        1.1650     3.6650    -1.1710 H     1 <1>   0.0800 
 27 H        2.8050     3.1570    -1.4440 H     1 <1>   0.0800 
 28 H       -2.0550     1.9660     1.6930 H     1 <1>   0.0800 
 29 H       -2.2440     1.1930     0.1350 H     1 <1>   0.0800 
 30 H        1.7470     4.1220     1.2510 H     1 <1>   0.1500 
 31 H       -2.5230     4.1740     0.6590 H     1 <1>   0.0800 
 32 H       -3.8330     3.0630     0.3570 H     1 <1>   0.0800 
 33 H       -2.6840     3.3990    -0.9110 H     1 <1>   0.0800 
 34 H        4.4220     4.6610    -0.2090 H     1 <1>   0.1500 
 35 H        3.9630     5.2910     1.3930 H     1 <1>   0.1500 
 36 H        7.7670     2.6450     2.5150 H     1 <1>   0.1500 
 37 H        7.2870     2.1720    -1.6910 H     1 <1>   0.1500 
 38 H       10.0550     3.4060     2.1680 H     1 <1>   0.1500 
 39 H        9.5740     2.9340    -2.0380 H     1 <1>   0.1500 
 40 H       11.6920     4.3870     0.5990 H     1 <1>   0.0800 
 41 H       11.4910     4.2040    -1.1230 H     1 <1>   0.0800 
 42 H       12.0700     2.8590    -0.1650 H     1 <1>   0.0800 
@<TRIPOS>BOND
  1   1   2  2   
  2   2   3  am  
  3   2   4  am  
  4   3   5  1   
  5   3   6  1   
  6   4   7  1   
  7   4  23  1   
  8   5   8  1   
  9   5  24  1   
 10   5  25  1   
 11   6   9  1   
 12   6  26  1   
 13   6  27  1   
 14   7  10  1   
 15   7  28  1   
 16   7  29  1   
 17   8  11  1   
 18   8  12  2   
 19   9  13  2   
 20   9  30  1   
 21  10  31  1   
 22  10  32  1   
 23  10  33  1   
 24  11  14  1   
 25  12  15  1   
 26  13  34  1   
 27  13  35  1   
 28  14  15  2   
 29  15  16  1   
 30  16  17  ar  
 31  16  18  ar  
 32  17  19  ar  
 33  17  36  1   
 34  18  20  ar  
 35  18  37  1   
 36  19  21  ar  
 37  19  38  1   
 38  20  21  ar  
 39  20  39  1   
 40  21  22  1   
 41  22  40  1   
 42  22  41  1   
 43  22  42  1   
@<TRIPOS>SUBSTRUCTURE
  1 ****   8 GROUP 4 **** **** 0

# MOE 2024.06 (io_trps.svl 2023.06)
