@<TRIPOS>MOLECULE
Morpholine-4-carboxylic acid isopropyl-[3-(4-methoxy-phenyl)-[1,2,4]oxadiazol-5-
50 52 1 0 0 
SMALL
USER_CHARGES


@<TRIPOS>ATOM
  1 O        0.0750     0.8010     0.2280 O.2   1 <1>  -0.5700 
  2 C        0.4030     1.8770    -0.2390 C.2   1 <1>   0.6900 
  3 N       -0.2150     3.0240     0.1820 N.am  1 <1>  -0.6600 
  4 N        1.4180     1.9300    -1.1510 N.am  1 <1>  -0.6600 
  5 C       -1.5210     2.9580     0.8990 C.3   1 <1>   0.1400 
  6 C        0.5950     4.2140     0.5770 C.3   1 <1>   0.1400 
  7 C        1.3180     2.7670    -2.3720 C.3   1 <1>   0.2200 
  8 C        2.5740     0.9980    -0.9790 C.3   1 <1>   0.3200 
  9 C       -1.3090     3.1240     2.4130 C.3   1 <1>   0.1200 
 10 C        0.6850     4.3190     2.1090 C.3   1 <1>   0.1200 
 11 C        0.9690     1.8840    -3.5690 C.3   1 <1>  -0.2400 
 12 C        2.6070     3.5540    -2.6180 C.3   1 <1>  -0.2400 
 13 C        3.6540     1.6380    -0.1190 C.2   1 <1>   0.2980 
 14 O       -0.5930     4.2980     2.6820 O.3   1 <1>  -0.5600 
 15 O        3.3430     2.0140     1.0940 O.3   1 <1>  -0.0190 
 16 N        4.8550     1.8650    -0.4670 N.2   1 <1>  -0.5650 
 17 N        4.4360     2.5400     1.5530 N.2   1 <1>  -0.4100 
 18 C        5.3340     2.4500     0.6360 C.2   1 <1>   0.4620 
 19 C        6.7050     2.9190     0.7440 C.ar  1 <1>   0.0540 
 20 C        7.1860     3.4880     1.9250 C.ar  1 <1>  -0.1500 
 21 C        7.6000     2.8250    -0.3240 C.ar  1 <1>  -0.1500 
 22 C        8.4880     3.9410     2.0410 C.ar  1 <1>  -0.1500 
 23 C        8.9030     3.2750    -0.2180 C.ar  1 <1>  -0.1500 
 24 C        9.3590     3.8370     0.9620 C.ar  1 <1>   0.0820 
 25 O       10.6480     4.2530     0.9860 O.3   1 <1>  -0.3620 
 26 C       11.2110     4.8370     2.1400 C.3   1 <1>   0.0400 
 27 H       -2.0080     2.0180     0.7040 H     1 <1>   0.0800 
 28 H       -2.1630     3.7430     0.5410 H     1 <1>   0.0800 
 29 H        0.1370     5.1040     0.1830 H     1 <1>   0.0800 
 30 H        1.5900     4.1440     0.1780 H     1 <1>   0.0800 
 31 H        0.5140     3.4730    -2.2410 H     1 <1>   0.0800 
 32 H        2.9880     0.7400    -1.9360 H     1 <1>   0.0800 
 33 H        2.2520     0.0870    -0.5070 H     1 <1>   0.0800 
 34 H       -0.7650     2.2850     2.8100 H     1 <1>   0.0800 
 35 H       -2.2570     3.1930     2.9160 H     1 <1>   0.0800 
 36 H        1.1580     5.2420     2.3920 H     1 <1>   0.0800 
 37 H        1.2580     3.5000     2.5100 H     1 <1>   0.0800 
 38 H        1.7630     1.1970    -3.7950 H     1 <1>   0.0800 
 39 H        0.7970     2.4970    -4.4350 H     1 <1>   0.0800 
 40 H        0.0680     1.3320    -3.3660 H     1 <1>   0.0800 
 41 H        2.8660     4.1320    -1.7510 H     1 <1>   0.0800 
 42 H        3.4240     2.9010    -2.8670 H     1 <1>   0.0800 
 43 H        2.4630     4.2310    -3.4400 H     1 <1>   0.0800 
 44 H        6.5260     3.5770     2.7710 H     1 <1>   0.1500 
 45 H        7.2730     2.3920    -1.2540 H     1 <1>   0.1500 
 46 H        8.8050     4.3700     2.9720 H     1 <1>   0.1500 
 47 H        9.5780     3.1940    -1.0510 H     1 <1>   0.1500 
 48 H       12.2340     5.0840     1.9230 H     1 <1>   0.0800 
 49 H       11.1690     4.1260     2.9460 H     1 <1>   0.0800 
 50 H       10.6620     5.7300     2.3820 H     1 <1>   0.0800 
@<TRIPOS>BOND
  1   1   2  2   
  2   2   3  am  
  3   2   4  am  
  4   3   5  1   
  5   3   6  1   
  6   4   7  1   
  7   4   8  1   
  8   5   9  1   
  9   5  27  1   
 10   5  28  1   
 11   6  10  1   
 12   6  29  1   
 13   6  30  1   
 14   7  11  1   
 15   7  12  1   
 16   7  31  1   
 17   8  13  1   
 18   8  32  1   
 19   8  33  1   
 20   9  14  1   
 21   9  34  1   
 22   9  35  1   
 23  10  14  1   
 24  10  36  1   
 25  10  37  1   
 26  11  38  1   
 27  11  39  1   
 28  11  40  1   
 29  12  41  1   
 30  12  42  1   
 31  12  43  1   
 32  13  15  1   
 33  13  16  2   
 34  15  17  1   
 35  16  18  1   
 36  17  18  2   
 37  18  19  1   
 38  19  20  ar  
 39  19  21  ar  
 40  20  22  ar  
 41  20  44  1   
 42  21  23  ar  
 43  21  45  1   
 44  22  24  ar  
 45  22  46  1   
 46  23  24  ar  
 47  23  47  1   
 48  24  25  1   
 49  25  26  1   
 50  26  48  1   
 51  26  49  1   
 52  26  50  1   
@<TRIPOS>SUBSTRUCTURE
  1 ****  15 GROUP 4 **** **** 0

# MOE 2024.06 (io_trps.svl 2023.06)
