@<TRIPOS>MOLECULE
3-(3,3-Dimethyl-2-oxo-butyl)-8-(2-methoxy-5-methyl-phenyl)-1-methyl-7,8-dihydro-
59 62 1 0 0 
SMALL
USER_CHARGES


@<TRIPOS>ATOM
  1 O       -0.5470     0.1990     0.3620 O.2   1 <1>  -0.5740 
  2 C        0.5920     0.3570     0.7540 C.2   1 <1>   0.6870 
  3 N        0.9190     1.5020     1.4670 N.am  1 <1>  -0.4250 
  4 N        1.5620    -0.5960     0.4750 N.am  1 <1>  -0.4410 
  5 C        2.1970     1.6990     1.9650 C.2   1 <1>   0.7000 
  6 C        0.1030     2.7270     1.2040 C.3   1 <1>   0.1950 
  7 C        2.8600    -0.3310     0.8680 C.2   1 <1>   0.4210 
  8 C        1.2280    -1.8200    -0.3080 C.3   1 <1>   0.0530 
  9 O        2.4440     2.6500     2.6890 O.2   1 <1>  -0.5740 
 10 C        3.2050     0.7590     1.5930 C.2   1 <1>   0.2720 
 11 C        0.5550     3.3970    -0.0980 C.2   1 <1>   0.4440 
 12 N        3.9870    -1.0550     0.6000 N.pl3 1 <1>  -0.7030 
 13 N        4.5890     0.6710     1.7660 N.pl3 1 <1>  -0.7670 
 14 O        1.6030     3.0880    -0.5990 O.2   1 <1>  -0.5740 
 15 C       -0.3870     4.4530    -0.7210 C.3   1 <1>   0.0540 
 16 C        5.0070    -0.4010     1.1390 C.cat 1 <1>   1.0690 
 17 C        5.7010     1.4760     2.2930 C.3   1 <1>   0.3490 
 18 C       -1.6290     3.7660    -1.3170 C.3   1 <1>  -0.2460 
 19 C       -0.8420     5.4850     0.3290 C.3   1 <1>  -0.2460 
 20 C        0.3190     5.2210    -1.8550 C.3   1 <1>  -0.2460 
 21 N        6.3320    -0.5630     1.1730 N.pl3 1 <1>  -0.5790 
 22 C        6.9210     0.6080     1.8980 C.3   1 <1>   0.1620 
 23 C        7.1110    -1.5810     0.5800 C.ar  1 <1>   0.3060 
 24 C        6.8790    -2.0460    -0.7240 C.ar  1 <1>   0.0760 
 25 C        8.1470    -2.1450     1.3150 C.ar  1 <1>  -0.1560 
 26 O        5.8650    -1.4890    -1.4510 O.3   1 <1>  -0.3670 
 27 C        7.6790    -3.0550    -1.2510 C.ar  1 <1>  -0.1560 
 28 C        8.9430    -3.1470     0.7880 C.ar  1 <1>  -0.1500 
 29 C        5.8650    -1.5610    -2.8640 C.3   1 <1>   0.0330 
 30 C        8.7040    -3.5970    -0.4970 C.ar  1 <1>  -0.1560 
 31 C       10.0720    -3.7520     1.6040 C.3   1 <1>  -0.1030 
 32 H        0.2120     3.4220     2.0170 H     1 <1>   0.0730 
 33 H       -0.9370     2.4630     1.1400 H     1 <1>   0.0730 
 34 H        0.1930    -2.0840    -0.1680 H     1 <1>   0.0730 
 35 H        1.8320    -2.6500     0.0150 H     1 <1>   0.0730 
 36 H        1.3980    -1.6370    -1.3550 H     1 <1>   0.0730 
 37 H        4.1240    -1.8320    -0.0460 H     1 <1>   0.4460 
 38 H        5.6220     1.5920     3.3610 H     1 <1>   0.0730 
 39 H        5.7330     2.4430     1.8180 H     1 <1>   0.0730 
 40 H       -2.2090     3.2740    -0.5580 H     1 <1>   0.0730 
 41 H       -1.3320     3.0300    -2.0450 H     1 <1>   0.0730 
 42 H       -2.2610     4.4870    -1.8050 H     1 <1>   0.0730 
 43 H       -1.4370     5.0270     1.0990 H     1 <1>   0.0730 
 44 H       -1.4400     6.2510    -0.1340 H     1 <1>   0.0730 
 45 H        0.0110     5.9550     0.7850 H     1 <1>   0.0730 
 46 H        0.6260     4.5440    -2.6340 H     1 <1>   0.0730 
 47 H        1.1970     5.7180    -1.4810 H     1 <1>   0.0730 
 48 H       -0.3330     5.9590    -2.2870 H     1 <1>   0.0730 
 49 H        7.4530     0.2870     2.7770 H     1 <1>   0.0730 
 50 H        7.5880     1.1550     1.2530 H     1 <1>   0.0730 
 51 H        8.3380    -1.8070     2.3160 H     1 <1>   0.1440 
 52 H        7.5260    -3.4390    -2.2430 H     1 <1>   0.1440 
 53 H        5.0940    -0.9090    -3.2360 H     1 <1>   0.0730 
 54 H        5.6610    -2.5730    -3.1670 H     1 <1>   0.0730 
 55 H        6.8230    -1.2370    -3.2340 H     1 <1>   0.0730 
 56 H        9.3180    -4.3770    -0.9180 H     1 <1>   0.1440 
 57 H        9.9020    -3.6150     2.6570 H     1 <1>   0.0730 
 58 H       11.0040    -3.2860     1.3400 H     1 <1>   0.0730 
 59 H       10.1480    -4.8080     1.4110 H     1 <1>   0.0730 
@<TRIPOS>BOND
  1   1   2  2   
  2   2   3  am  
  3   2   4  am  
  4   3   5  am  
  5   3   6  1   
  6   4   7  1   
  7   4   8  1   
  8   5   9  2   
  9   5  10  1   
 10   6  11  1   
 11   6  32  1   
 12   6  33  1   
 13   7  10  2   
 14   7  12  1   
 15   8  34  1   
 16   8  35  1   
 17   8  36  1   
 18  10  13  1   
 19  11  14  2   
 20  11  15  1   
 21  12  16  ar  
 22  12  37  1   
 23  13  16  ar  
 24  13  17  1   
 25  15  18  1   
 26  15  19  1   
 27  15  20  1   
 28  16  21  ar  
 29  17  22  1   
 30  17  38  1   
 31  17  39  1   
 32  18  40  1   
 33  18  41  1   
 34  18  42  1   
 35  19  43  1   
 36  19  44  1   
 37  19  45  1   
 38  20  46  1   
 39  20  47  1   
 40  20  48  1   
 41  21  22  1   
 42  21  23  1   
 43  22  49  1   
 44  22  50  1   
 45  23  24  ar  
 46  23  25  ar  
 47  24  26  1   
 48  24  27  ar  
 49  25  28  ar  
 50  25  51  1   
 51  26  29  1   
 52  27  30  ar  
 53  27  52  1   
 54  28  30  ar  
 55  28  31  1   
 56  29  53  1   
 57  29  54  1   
 58  29  55  1   
 59  30  56  1   
 60  31  57  1   
 61  31  58  1   
 62  31  59  1   
@<TRIPOS>SUBSTRUCTURE
  1 ****   7 GROUP 4 **** **** 0

# MOE 2024.06 (io_trps.svl 2023.06)
