@<TRIPOS>MOLECULE
N-[3-(3,4-Dimethoxy-phenyl)-[1,2,4]oxadiazol-5-ylmethyl]-2,4,6-trimethyl-benzene
52 54 1 0 0 
SMALL
USER_CHARGES


@<TRIPOS>ATOM
  1 S        0.7110    -0.6090    -1.7880 S.o2  1 <1>   1.4470 
  2 O        1.4120     0.6380    -1.9820 O.2   1 <1>  -0.6500 
  3 O       -0.1670    -1.0300    -2.8560 O.2   1 <1>  -0.6500 
  4 N        1.9200    -1.7690    -1.7470 N.am  1 <1>  -0.9140 
  5 C       -0.0300    -0.7580    -0.1120 C.ar  1 <1>  -0.0090 
  6 C        2.7630    -1.6930    -2.9360 C.3   1 <1>   0.3760 
  7 C        0.4700    -0.0260     0.9770 C.ar  1 <1>  -0.1440 
  8 C       -1.0900    -1.6420     0.1450 C.ar  1 <1>  -0.1430 
  9 C        4.0110    -0.8610    -2.6530 C.2   1 <1>   0.2980 
 10 C       -0.0960    -0.1470     2.2360 C.ar  1 <1>  -0.1500 
 11 C        1.6520     0.9360     0.8700 C.3   1 <1>  -0.0960 
 12 C       -1.6420    -1.7460     1.4120 C.ar  1 <1>  -0.1500 
 13 C       -1.6940    -2.5440    -0.9270 C.3   1 <1>  -0.0960 
 14 O        4.7410    -0.4610    -3.6590 O.3   1 <1>  -0.0190 
 15 N        4.4280    -0.5130    -1.5020 N.2   1 <1>  -0.5650 
 16 C       -1.1560    -0.9980     2.4630 C.ar  1 <1>  -0.1430 
 17 N        5.7030     0.2070    -3.1030 N.2   1 <1>  -0.4100 
 18 C        5.5180     0.1890    -1.8300 C.2   1 <1>   0.4620 
 19 C       -1.7680    -1.1190     3.8460 C.3   1 <1>  -0.0970 
 20 C        6.3600     0.8350    -0.8370 C.ar  1 <1>   0.0540 
 21 C        6.0610     0.7860     0.5250 C.ar  1 <1>  -0.1500 
 22 C        7.5080     1.5350    -1.2030 C.ar  1 <1>  -0.1500 
 23 C        6.8530     1.3940     1.4810 C.ar  1 <1>   0.0830 
 24 C        8.3120     2.1580    -0.2660 C.ar  1 <1>  -0.1500 
 25 O        6.4230     1.2420     2.7650 O.3   1 <1>  -0.3620 
 26 C        7.9970     2.1060     1.0900 C.ar  1 <1>   0.0830 
 27 C        7.3480     1.0730     3.8170 C.3   1 <1>   0.0400 
 28 O        8.7610     2.7420     2.0240 O.3   1 <1>  -0.3630 
 29 C        9.8240     3.5990     1.6710 C.3   1 <1>   0.0400 
 30 H        2.5460    -1.4380    -1.0080 H     1 <1>   0.4200 
 31 H        2.2240    -1.2800    -3.7730 H     1 <1>   0.0800 
 32 H        3.0750    -2.6870    -3.2020 H     1 <1>   0.0800 
 33 H        0.2900     0.4280     3.0600 H     1 <1>   0.1500 
 34 H        1.3710     1.8080     0.3050 H     1 <1>   0.0800 
 35 H        2.4910     0.4630     0.3950 H     1 <1>   0.0800 
 36 H        1.9800     1.2660     1.8400 H     1 <1>   0.0800 
 37 H       -2.4620    -2.4200     1.5900 H     1 <1>   0.1500 
 38 H       -2.3730    -3.2610    -0.5000 H     1 <1>   0.0800 
 39 H       -2.2420    -1.9560    -1.6420 H     1 <1>   0.0800 
 40 H       -0.9230    -3.0940    -1.4370 H     1 <1>   0.0800 
 41 H       -1.6830    -0.1880     4.3770 H     1 <1>   0.0800 
 42 H       -1.2590    -1.8840     4.4040 H     1 <1>   0.0800 
 43 H       -2.8100    -1.3740     3.7760 H     1 <1>   0.0800 
 44 H        5.1870     0.2570     0.8570 H     1 <1>   0.1500 
 45 H        7.7770     1.5950    -2.2440 H     1 <1>   0.1500 
 46 H        9.1790     2.6820    -0.6180 H     1 <1>   0.1500 
 47 H        6.8440     0.5870     4.6320 H     1 <1>   0.0800 
 48 H        7.6970     2.0400     4.1310 H     1 <1>   0.0800 
 49 H        8.1660     0.4650     3.4730 H     1 <1>   0.0800 
 50 H       10.2220     4.0250     2.5740 H     1 <1>   0.0800 
 51 H        9.4460     4.3800     1.0340 H     1 <1>   0.0800 
 52 H       10.5850     3.0260     1.1720 H     1 <1>   0.0800 
@<TRIPOS>BOND
  1   1   2  2   
  2   1   3  2   
  3   1   4  am  
  4   1   5  1   
  5   4   6  1   
  6   4  30  1   
  7   5   7  ar  
  8   5   8  ar  
  9   6   9  1   
 10   6  31  1   
 11   6  32  1   
 12   7  10  ar  
 13   7  11  1   
 14   8  12  ar  
 15   8  13  1   
 16   9  14  1   
 17   9  15  2   
 18  10  16  ar  
 19  10  33  1   
 20  11  34  1   
 21  11  35  1   
 22  11  36  1   
 23  12  16  ar  
 24  12  37  1   
 25  13  38  1   
 26  13  39  1   
 27  13  40  1   
 28  14  17  1   
 29  15  18  1   
 30  16  19  1   
 31  17  18  2   
 32  18  20  1   
 33  19  41  1   
 34  19  42  1   
 35  19  43  1   
 36  20  21  ar  
 37  20  22  ar  
 38  21  23  ar  
 39  21  44  1   
 40  22  24  ar  
 41  22  45  1   
 42  23  25  1   
 43  23  26  ar  
 44  24  26  ar  
 45  24  46  1   
 46  25  27  1   
 47  26  28  1   
 48  27  47  1   
 49  27  48  1   
 50  27  49  1   
 51  28  29  1   
 52  29  50  1   
 53  29  51  1   
 54  29  52  1   
@<TRIPOS>SUBSTRUCTURE
  1 ****  15 GROUP 4 **** **** 0

# MOE 2024.06 (io_trps.svl 2023.06)
