@<TRIPOS>MOLECULE
1-(5-Amino-1-ethyl-1H-benzoimidazol-2-yl)-ethanol
30 31 1 0 0 
SMALL
USER_CHARGES


@<TRIPOS>ATOM
  1 O       -0.7470    -0.5650    -1.1390 O.3   1 <1>  -0.6800 
  2 C       -1.1240    -1.6080    -0.3330 C.3   1 <1>   0.3800 
  3 C       -2.6320    -1.4880    -0.1190 C.2   1 <1>   0.0060 
  4 C       -0.3490    -1.4720     0.9740 C.3   1 <1>  -0.2400 
  5 N       -3.2800    -0.3710    -0.2110 N.2   1 <1>  -0.5650 
  6 N       -3.4190    -2.5600     0.1840 N.pl3 1 <1>   0.0480 
  7 C       -4.5740    -0.7080     0.0420 C.ar  1 <1>   0.2270 
  8 C       -4.6830    -2.0620     0.2890 C.ar  1 <1>  -0.1520 
  9 C       -3.0390    -3.9810     0.3450 C.3   1 <1>   0.0960 
 10 C       -5.7040     0.1050     0.0740 C.ar  1 <1>  -0.1500 
 11 C       -5.9240    -2.6420     0.5700 C.ar  1 <1>  -0.1500 
 12 C       -3.1640    -4.7240    -0.9880 C.3   1 <1>  -0.2400 
 13 C       -6.9340    -0.4510     0.3600 C.ar  1 <1>   0.1000 
 14 C       -7.0350    -1.8300     0.6010 C.ar  1 <1>  -0.1500 
 15 N       -8.0740     0.3380     0.4140 N.pl3 1 <1>  -0.9000 
 16 H       -1.5010     0.0670    -1.0940 H     1 <1>   0.4000 
 17 H       -0.8690    -2.5210    -0.8430 H     1 <1>   0.0800 
 18 H       -0.5940    -0.5400     1.4500 H     1 <1>   0.0800 
 19 H        0.7080    -1.5100     0.7800 H     1 <1>   0.0800 
 20 H       -0.6060    -2.2730     1.6410 H     1 <1>   0.0800 
 21 H       -3.6860    -4.4290     1.0780 H     1 <1>   0.0800 
 22 H       -2.0300    -4.0410     0.7090 H     1 <1>   0.0800 
 23 H       -5.5910     1.1510    -0.1270 H     1 <1>   0.1500 
 24 H       -6.0050    -3.6980     0.7530 H     1 <1>   0.1500 
 25 H       -4.1790    -4.6830    -1.3440 H     1 <1>   0.0800 
 26 H       -2.8910    -5.7560    -0.8590 H     1 <1>   0.0800 
 27 H       -2.5140    -4.2890    -1.7260 H     1 <1>   0.0800 
 28 H       -8.0040    -2.2460     0.8080 H     1 <1>   0.1500 
 29 H       -8.7960    -0.0040     1.0530 H     1 <1>   0.4000 
 30 H       -7.8890     1.3330     0.5730 H     1 <1>   0.4000 
@<TRIPOS>BOND
  1   1   2  1   
  2   1  16  1   
  3   2   3  1   
  4   2   4  1   
  5   2  17  1   
  6   3   5  2   
  7   3   6  1   
  8   4  18  1   
  9   4  19  1   
 10   4  20  1   
 11   5   7  1   
 12   6   8  1   
 13   6   9  1   
 14   7   8  ar  
 15   7  10  ar  
 16   8  11  ar  
 17   9  12  1   
 18   9  21  1   
 19   9  22  1   
 20  10  13  ar  
 21  10  23  1   
 22  11  14  ar  
 23  11  24  1   
 24  12  25  1   
 25  12  26  1   
 26  12  27  1   
 27  13  14  ar  
 28  13  15  1   
 29  14  28  1   
 30  15  29  1   
 31  15  30  1   
@<TRIPOS>SUBSTRUCTURE
  1 ****   8 GROUP 4 **** **** 0

# MOE 2024.06 (io_trps.svl 2023.06)
