@<TRIPOS>MOLECULE
5-Butyl-2H-pyrazole-3-carboxylic acid
23 23 1 0 0 
SMALL
USER_CHARGES


@<TRIPOS>ATOM
  1 O       -0.9850    -0.3490    -1.4770 O.co2 1 <1>  -0.9000 
  2 C       -1.5980    -1.0290    -0.6230 C.2   1 <1>   1.0330 
  3 O       -1.1420    -2.1640    -0.3680 O.co2 1 <1>  -0.9000 
  4 C       -2.8040    -0.4750     0.0280 C.2   1 <1>   0.0560 
  5 N       -3.5930    -1.0090     0.9560 N.2   1 <1>  -0.7070 
  6 C       -3.2860     0.8010    -0.3020 C.2   1 <1>  -0.1500 
  7 N       -4.5380    -0.0960     1.1990 N.pl3 1 <1>   0.3000 
  8 C       -4.3820     1.0130     0.4530 C.2   1 <1>  -0.3320 
  9 C       -5.2940     2.2230     0.5070 C.3   1 <1>   0.0200 
 10 C       -6.6950     1.8710    -0.0040 C.3   1 <1>  -0.1600 
 11 C       -7.6230     3.0920     0.0090 C.3   1 <1>  -0.1600 
 12 C       -9.0190     2.7280    -0.5030 C.3   1 <1>  -0.2400 
 13 H       -2.8200     1.4410    -1.0320 H     1 <1>   0.1500 
 14 H       -5.2830    -0.2610     1.8830 H     1 <1>   0.2700 
 15 H       -4.8730     3.0020    -0.1060 H     1 <1>   0.0800 
 16 H       -5.3450     2.5880     1.5180 H     1 <1>   0.0800 
 17 H       -7.1160     1.0940     0.6090 H     1 <1>   0.0800 
 18 H       -6.6110     1.4910    -1.0090 H     1 <1>   0.0800 
 19 H       -7.2090     3.8660    -0.6150 H     1 <1>   0.0800 
 20 H       -7.7030     3.4780     1.0110 H     1 <1>   0.0800 
 21 H       -8.9640     2.3570    -1.5110 H     1 <1>   0.0800 
 22 H       -9.6530     3.5970    -0.4930 H     1 <1>   0.0800 
 23 H       -9.4650     1.9730     0.1210 H     1 <1>   0.0800 
@<TRIPOS>BOND
  1   1   2  ar  
  2   2   3  ar  
  3   2   4  1   
  4   4   5  2   
  5   4   6  1   
  6   5   7  1   
  7   6   8  2   
  8   6  13  1   
  9   7   8  1   
 10   7  14  1   
 11   8   9  1   
 12   9  10  1   
 13   9  15  1   
 14   9  16  1   
 15  10  11  1   
 16  10  17  1   
 17  10  18  1   
 18  11  12  1   
 19  11  19  1   
 20  11  20  1   
 21  12  21  1   
 22  12  22  1   
 23  12  23  1   
@<TRIPOS>SUBSTRUCTURE
  1 ****   8 GROUP 4 **** **** 0

# MOE 2024.06 (io_trps.svl 2023.06)
