@<TRIPOS>MOLECULE
2-[(Z)-sec-Butylimino]-6-methyl-10-oxo-1,10-dihydro-2H-1,9,10a-triaza-anthracene
44 46 1 0 0 
SMALL
USER_CHARGES


@<TRIPOS>ATOM
  1 O       -0.1620    -0.2690     0.2970 O.2   1 <1>  -0.5700 
  2 C       -0.1080    -1.4630     0.1110 C.2   1 <1>   0.8650 
  3 N       -1.3050    -2.1620    -0.1300 N.pl3 1 <1>  -0.5760 
  4 C        1.1450    -2.1460     0.1420 C.ar  1 <1>   0.0860 
  5 C       -1.2780    -3.5030    -0.3150 C.cat 1 <1>   0.7390 
  6 C       -2.5150    -1.5040    -0.1780 C.2   1 <1>   0.1910 
  7 C        1.0990    -3.5200    -0.0550 C.ar  1 <1>   0.6590 
  8 C        2.3910    -1.5680     0.3500 C.ar  1 <1>  -0.1500 
  9 N       -0.0940    -4.1310    -0.2670 N.pl3 1 <1>  -0.6530 
 10 C       -2.4670    -4.2050    -0.5510 C.2   1 <1>  -0.1800 
 11 C       -3.6900    -2.1690    -0.4080 C.2   1 <1>  -0.1380 
 12 N        2.1310    -4.3230    -0.0590 N.ar  1 <1>  -0.6200 
 13 C        3.5170    -2.3760     0.3530 C.ar  1 <1>   0.0860 
 14 C       -3.6700    -3.5540    -0.6000 C.2   1 <1>  -0.1500 
 15 C       -5.0260    -1.4450    -0.4620 C.3   1 <1>  -0.1020 
 16 C        3.3200    -3.7630     0.1360 C.ar  1 <1>   0.4100 
 17 C        4.8320    -1.8140     0.5680 C.2   1 <1>   0.5440 
 18 N        4.3830    -4.6180     0.1200 N.pl3 1 <1>  -0.8690 
 19 O        5.8240    -2.2510     0.0240 O.2   1 <1>  -0.5700 
 20 N        5.0350    -0.7520     1.3840 N.am  1 <1>  -0.8000 
 21 C        4.4120    -6.0650    -0.1400 C.3   1 <1>   0.2890 
 22 C        5.1840    -6.7290     1.0070 C.3   1 <1>  -0.1600 
 23 C        5.0760    -6.2630    -1.4990 C.3   1 <1>  -0.2400 
 24 C        5.1960    -8.2640     0.9300 C.3   1 <1>  -0.2400 
 25 H       -2.5270    -0.4320    -0.0300 H     1 <1>   0.1500 
 26 H        2.4770    -0.5030     0.4970 H     1 <1>   0.1500 
 27 H       -0.0200    -5.1400    -0.4020 H     1 <1>   0.4500 
 28 H       -2.4260    -5.2690    -0.6960 H     1 <1>   0.1500 
 29 H       -4.5920    -4.0860    -0.7810 H     1 <1>   0.1500 
 30 H       -5.4870    -1.5890    -1.4240 H     1 <1>   0.0800 
 31 H       -4.9050    -0.3880    -0.3000 H     1 <1>   0.0800 
 32 H       -5.6870    -1.8300     0.2950 H     1 <1>   0.0800 
 33 H        5.3190    -4.1790     0.0880 H     1 <1>   0.4000 
 34 H        5.9960    -0.4170     1.5010 H     1 <1>   0.3700 
 35 H        4.3520    -0.3640     2.0330 H     1 <1>   0.3700 
 36 H        3.4110    -6.4620    -0.1680 H     1 <1>   0.0800 
 37 H        4.7220    -6.4430     1.9350 H     1 <1>   0.0800 
 38 H        6.1980    -6.3690     1.0150 H     1 <1>   0.0800 
 39 H        6.0950    -5.9210    -1.4760 H     1 <1>   0.0800 
 40 H        4.5370    -5.7180    -2.2520 H     1 <1>   0.0800 
 41 H        5.0680    -7.3020    -1.7710 H     1 <1>   0.0800 
 42 H        4.1920    -8.6490     0.8890 H     1 <1>   0.0800 
 43 H        5.6780    -8.6670     1.8030 H     1 <1>   0.0800 
 44 H        5.7360    -8.6030     0.0640 H     1 <1>   0.0800 
@<TRIPOS>BOND
  1   1   2  2   
  2   2   3  1   
  3   2   4  1   
  4   3   5  ar  
  5   3   6  1   
  6   4   7  ar  
  7   4   8  ar  
  8   5   9  ar  
  9   5  10  1   
 10   6  11  2   
 11   6  25  1   
 12   7   9  1   
 13   7  12  ar  
 14   8  13  ar  
 15   8  26  1   
 16   9  27  1   
 17  10  14  2   
 18  10  28  1   
 19  11  14  1   
 20  11  15  1   
 21  12  16  ar  
 22  13  16  ar  
 23  13  17  1   
 24  14  29  1   
 25  15  30  1   
 26  15  31  1   
 27  15  32  1   
 28  16  18  1   
 29  17  19  2   
 30  17  20  am  
 31  18  21  1   
 32  18  33  1   
 33  20  34  1   
 34  20  35  1   
 35  21  22  1   
 36  21  23  1   
 37  21  36  1   
 38  22  24  1   
 39  22  37  1   
 40  22  38  1   
 41  23  39  1   
 42  23  40  1   
 43  23  41  1   
 44  24  42  1   
 45  24  43  1   
 46  24  44  1   
@<TRIPOS>SUBSTRUCTURE
  1 ****   7 GROUP 4 **** **** 0

# MOE 2024.06 (io_trps.svl 2023.06)
