@<TRIPOS>MOLECULE
7-Methyl-6-(morpholine-4-sulfonyl)-4H-benzo[1,4]oxazin-3-one
37 39 1 0 0 
SMALL
USER_CHARGES


@<TRIPOS>ATOM
  1 S       -0.0920    -0.1340     1.6430 S.o2  1 <1>   1.4470 
  2 O       -0.5440    -1.4830     1.9100 O.2   1 <1>  -0.6500 
  3 O        0.3780     0.6730     2.7480 O.2   1 <1>  -0.6500 
  4 N        1.1990    -0.2750     0.5530 N.am  1 <1>  -0.8490 
  5 C       -1.3750     0.7700     0.7150 C.ar  1 <1>  -0.0090 
  6 C        2.4300    -0.7040     1.2350 C.3   1 <1>   0.1960 
  7 C        0.9130    -1.2000    -0.5570 C.3   1 <1>   0.1960 
  8 C       -1.1820     2.0470     0.1740 C.ar  1 <1>  -0.1440 
  9 C       -2.6150     0.1650     0.5270 C.ar  1 <1>  -0.1500 
 10 C        3.5990    -0.8350     0.2420 C.3   1 <1>   0.1200 
 11 C        2.1180    -1.3060    -1.5100 C.3   1 <1>   0.1200 
 12 C       -2.2020     2.6710    -0.5320 C.ar  1 <1>  -0.1500 
 13 C        0.1340     2.8000     0.3370 C.3   1 <1>  -0.0960 
 14 C       -3.6390     0.7840    -0.1700 C.ar  1 <1>   0.1170 
 15 O        3.2640    -1.6970    -0.8090 O.3   1 <1>  -0.5600 
 16 C       -3.4230     2.0520    -0.7050 C.ar  1 <1>   0.0820 
 17 N       -4.8770     0.1670    -0.3580 N.am  1 <1>  -0.5470 
 18 O       -4.3890     2.7030    -1.4120 O.3   1 <1>  -0.3630 
 19 C       -5.9200     0.8050    -0.9420 C.2   1 <1>   0.5690 
 20 C       -5.7530     2.2780    -1.3150 C.3   1 <1>   0.1810 
 21 O       -6.9640     0.2360    -1.1420 O.2   1 <1>  -0.5700 
 22 H        2.2710    -1.6520     1.7220 H     1 <1>   0.0800 
 23 H        2.6950     0.0170     1.9890 H     1 <1>   0.0800 
 24 H        0.0590    -0.8490    -1.1100 H     1 <1>   0.0800 
 25 H        0.6860    -2.1830    -0.1770 H     1 <1>   0.0800 
 26 H       -2.7910    -0.8140     0.9380 H     1 <1>   0.1500 
 27 H        4.4640    -1.2390     0.7360 H     1 <1>   0.0800 
 28 H        3.8520     0.1270    -0.1690 H     1 <1>   0.0800 
 29 H        2.3100    -0.3590    -1.9840 H     1 <1>   0.0800 
 30 H        1.9300    -2.0440    -2.2690 H     1 <1>   0.0800 
 31 H       -2.0610     3.6500    -0.9560 H     1 <1>   0.1500 
 32 H        0.0610     3.7970    -0.0610 H     1 <1>   0.0800 
 33 H        0.3960     2.8830     1.3760 H     1 <1>   0.0800 
 34 H        0.9250     2.2930    -0.1850 H     1 <1>   0.0800 
 35 H       -5.0320    -0.8030    -0.0850 H     1 <1>   0.3700 
 36 H       -6.2200     2.4640    -2.2640 H     1 <1>   0.0800 
 37 H       -6.2280     2.8840    -0.5670 H     1 <1>   0.0800 
@<TRIPOS>BOND
  1   1   2  2   
  2   1   3  2   
  3   1   4  am  
  4   1   5  1   
  5   4   6  1   
  6   4   7  1   
  7   5   8  ar  
  8   5   9  ar  
  9   6  10  1   
 10   6  22  1   
 11   6  23  1   
 12   7  11  1   
 13   7  24  1   
 14   7  25  1   
 15   8  12  ar  
 16   8  13  1   
 17   9  14  ar  
 18   9  26  1   
 19  10  15  1   
 20  10  27  1   
 21  10  28  1   
 22  11  15  1   
 23  11  29  1   
 24  11  30  1   
 25  12  16  ar  
 26  12  31  1   
 27  13  32  1   
 28  13  33  1   
 29  13  34  1   
 30  14  16  ar  
 31  14  17  1   
 32  16  18  1   
 33  17  19  am  
 34  17  35  1   
 35  18  20  1   
 36  19  20  1   
 37  19  21  2   
 38  20  36  1   
 39  20  37  1   
@<TRIPOS>SUBSTRUCTURE
  1 ****   5 GROUP 4 **** **** 0

# MOE 2024.06 (io_trps.svl 2023.06)
