@<TRIPOS>MOLECULE
2-Propylsulfanyl-5-p-tolyl-5,8-dihydro-3H,6H-pyrido[2,3-d]pyrimidine-4,7-dione
42 44 1 0 0 
SMALL
USER_CHARGES


@<TRIPOS>ATOM
  1 S        0.1860     0.5940     1.6610 S.3   1 <1>  -0.3710 
  2 C        1.4510     1.4500     0.7590 C.2   1 <1>   0.6410 
  3 C       -1.4050     1.3630     1.1100 C.3   1 <1>   0.0700 
  4 N        2.7010     0.9950     1.0140 N.pl3 1 <1>  -0.5500 
  5 N        1.1470     2.3970    -0.0450 N.2   1 <1>  -0.6610 
  6 C       -1.8380     0.6940    -0.1970 C.3   1 <1>  -0.1600 
  7 C        3.7660     1.5680     0.3990 C.2   1 <1>   0.2090 
  8 C        2.1910     2.9970    -0.6920 C.2   1 <1>   0.7670 
  9 C       -3.1630     1.2740    -0.7020 C.3   1 <1>  -0.2400 
 10 N        5.0290     1.0920     0.6440 N.am  1 <1>  -0.5390 
 11 C        3.5280     2.5990    -0.4510 C.2   1 <1>  -0.1240 
 12 O        1.9180     3.8660    -1.5110 O.2   1 <1>  -0.5700 
 13 C        6.1250     1.4940    -0.0500 C.2   1 <1>   0.5690 
 14 C        4.6920     3.3270    -1.1140 C.3   1 <1>   0.2020 
 15 O        7.2200     1.1030     0.2530 O.2   1 <1>  -0.5700 
 16 C        5.9430     2.4290    -1.2310 C.3   1 <1>  -0.0990 
 17 C        4.9730     4.6270    -0.3550 C.ar  1 <1>  -0.1430 
 18 C        5.7100     4.6630     0.8230 C.ar  1 <1>  -0.1500 
 19 C        4.4580     5.8170    -0.8490 C.ar  1 <1>  -0.1500 
 20 C        5.9370     5.8610     1.4780 C.ar  1 <1>  -0.1500 
 21 C        4.6850     7.0150    -0.1940 C.ar  1 <1>  -0.1500 
 22 C        5.4290     7.0450     0.9720 C.ar  1 <1>  -0.1430 
 23 C        5.6750     8.3580     1.6910 C.3   1 <1>  -0.0970 
 24 H       -1.2400     2.4190     0.9870 H     1 <1>   0.0800 
 25 H       -2.1230     1.1940     1.8920 H     1 <1>   0.0800 
 26 H        2.7880     0.2230     1.6730 H     1 <1>   0.4000 
 27 H       -1.9500    -0.3640    -0.0360 H     1 <1>   0.0800 
 28 H       -1.0790     0.8460    -0.9450 H     1 <1>   0.0800 
 29 H       -3.9430     1.1220     0.0230 H     1 <1>   0.0800 
 30 H       -3.4480     0.7920    -1.6200 H     1 <1>   0.0800 
 31 H       -3.0610     2.3290    -0.8890 H     1 <1>   0.0800 
 32 H        5.2140     0.4220     1.3900 H     1 <1>   0.3700 
 33 H        4.4080     3.5860    -2.1200 H     1 <1>   0.0800 
 34 H        5.8480     1.8150    -2.1070 H     1 <1>   0.0800 
 35 H        6.8220     3.0350    -1.3520 H     1 <1>   0.0800 
 36 H        6.1190     3.7680     1.2540 H     1 <1>   0.1500 
 37 H        3.8660     5.8230    -1.7490 H     1 <1>   0.1500 
 38 H        6.5120     5.8660     2.3870 H     1 <1>   0.1500 
 39 H        4.2730     7.9230    -0.5970 H     1 <1>   0.1500 
 40 H        6.5980     8.3190     2.2410 H     1 <1>   0.0800 
 41 H        4.8700     8.5540     2.3750 H     1 <1>   0.0800 
 42 H        5.7360     9.1660     0.9840 H     1 <1>   0.0800 
@<TRIPOS>BOND
  1   1   2  1   
  2   1   3  1   
  3   2   4  1   
  4   2   5  2   
  5   3   6  1   
  6   3  24  1   
  7   3  25  1   
  8   4   7  1   
  9   4  26  1   
 10   5   8  1   
 11   6   9  1   
 12   6  27  1   
 13   6  28  1   
 14   7  10  1   
 15   7  11  2   
 16   8  11  1   
 17   8  12  2   
 18   9  29  1   
 19   9  30  1   
 20   9  31  1   
 21  10  13  am  
 22  10  32  1   
 23  11  14  1   
 24  13  15  2   
 25  13  16  1   
 26  14  16  1   
 27  14  17  1   
 28  14  33  1   
 29  16  34  1   
 30  16  35  1   
 31  17  18  ar  
 32  17  19  ar  
 33  18  20  ar  
 34  18  36  1   
 35  19  21  ar  
 36  19  37  1   
 37  20  22  ar  
 38  20  38  1   
 39  21  22  ar  
 40  21  39  1   
 41  22  23  1   
 42  23  40  1   
 43  23  41  1   
 44  23  42  1   
@<TRIPOS>SUBSTRUCTURE
  1 ****  11 GROUP 4 **** **** 0

# MOE 2024.06 (io_trps.svl 2023.06)
