@<TRIPOS>MOLECULE
1-(4-Chloro-phenyl)-4-(3-methyl-piperidine-1-carbonyl)-pyrrolidin-2-one
43 45 1 0 0 
SMALL
USER_CHARGES


@<TRIPOS>ATOM
  1 CL      -0.1130     1.3220    -1.8870 Cl    1 <1>  -0.1770 
  2 C        1.3730     1.9480    -1.2170 C.ar  1 <1>   0.1770 
  3 C        2.4240     1.0870    -0.9690 C.ar  1 <1>  -0.1500 
  4 C        1.4770     3.2990    -0.9430 C.ar  1 <1>  -0.1500 
  5 C        3.6000     1.5900    -0.4410 C.ar  1 <1>  -0.1500 
  6 C        2.6570     3.7920    -0.4130 C.ar  1 <1>  -0.1500 
  7 C        3.7380     2.9480    -0.1570 C.ar  1 <1>   0.1170 
  8 N        4.9410     3.4590     0.3670 N.am  1 <1>  -0.4770 
  9 C        5.8030     2.8710     1.2490 C.2   1 <1>   0.5690 
 10 C        5.4450     4.7930    -0.0250 C.3   1 <1>   0.1400 
 11 O        5.6910     1.7850     1.7610 O.2   1 <1>  -0.5700 
 12 C        6.9900     3.7510     1.5260 C.3   1 <1>  -0.0990 
 13 C        6.9240     4.7830     0.3910 C.3   1 <1>  -0.0190 
 14 C        7.4780     6.1510     0.7810 C.2   1 <1>   0.5690 
 15 O        6.6820     7.0160     1.0640 O.2   1 <1>  -0.5700 
 16 N        8.8320     6.3870     0.8100 N.am  1 <1>  -0.6600 
 17 C        9.3670     7.7470     1.1160 C.3   1 <1>   0.1400 
 18 C        9.9050     5.3910     0.5290 C.3   1 <1>   0.1400 
 19 C       10.2010     8.2620    -0.0680 C.3   1 <1>  -0.0800 
 20 C       10.7340     5.8610    -0.6700 C.3   1 <1>  -0.1600 
 21 C       11.3120     7.2640    -0.4370 C.3   1 <1>  -0.1600 
 22 C       10.8030     9.6370     0.2480 C.3   1 <1>  -0.2400 
 23 H        2.3210     0.0390    -1.1860 H     1 <1>   0.1500 
 24 H        0.6450     3.9490    -1.1400 H     1 <1>   0.1500 
 25 H        4.4190     0.9210    -0.2460 H     1 <1>   0.1500 
 26 H        2.7310     4.8410    -0.1910 H     1 <1>   0.1500 
 27 H        4.8850     5.5390     0.5140 H     1 <1>   0.0800 
 28 H        5.3360     4.9520    -1.0840 H     1 <1>   0.0800 
 29 H        7.9000     3.1830     1.5140 H     1 <1>   0.0800 
 30 H        6.8560     4.2180     2.4850 H     1 <1>   0.0800 
 31 H        7.4720     4.4160    -0.4560 H     1 <1>   0.0800 
 32 H        9.9790     7.6910     2.0000 H     1 <1>   0.0800 
 33 H        8.5650     8.4380     1.3150 H     1 <1>   0.0800 
 34 H        9.5030     4.4160     0.3260 H     1 <1>   0.0800 
 35 H       10.5390     5.3100     1.3960 H     1 <1>   0.0800 
 36 H        9.5390     8.3730    -0.9110 H     1 <1>   0.0800 
 37 H       10.1110     5.8660    -1.5470 H     1 <1>   0.0800 
 38 H       11.5370     5.1670    -0.8420 H     1 <1>   0.0800 
 39 H       12.0340     7.2200     0.3610 H     1 <1>   0.0800 
 40 H       11.8210     7.5960    -1.3260 H     1 <1>   0.0800 
 41 H       11.4660     9.5790     1.0930 H     1 <1>   0.0800 
 42 H       10.0210    10.3420     0.4730 H     1 <1>   0.0800 
 43 H       11.3550    10.0060    -0.5980 H     1 <1>   0.0800 
@<TRIPOS>BOND
  1   1   2  1   
  2   2   3  ar  
  3   2   4  ar  
  4   3   5  ar  
  5   3  23  1   
  6   4   6  ar  
  7   4  24  1   
  8   5   7  ar  
  9   5  25  1   
 10   6   7  ar  
 11   6  26  1   
 12   7   8  1   
 13   8   9  am  
 14   8  10  1   
 15   9  11  2   
 16   9  12  1   
 17  10  13  1   
 18  10  27  1   
 19  10  28  1   
 20  12  13  1   
 21  12  29  1   
 22  12  30  1   
 23  13  14  1   
 24  13  31  1   
 25  14  15  2   
 26  14  16  am  
 27  16  17  1   
 28  16  18  1   
 29  17  19  1   
 30  17  32  1   
 31  17  33  1   
 32  18  20  1   
 33  18  34  1   
 34  18  35  1   
 35  19  21  1   
 36  19  22  1   
 37  19  36  1   
 38  20  21  1   
 39  20  37  1   
 40  20  38  1   
 41  21  39  1   
 42  21  40  1   
 43  22  41  1   
 44  22  42  1   
 45  22  43  1   
@<TRIPOS>SUBSTRUCTURE
  1 ****  10 GROUP 4 **** **** 0

# MOE 2024.06 (io_trps.svl 2023.06)
