@<TRIPOS>MOLECULE
3-(3-Hydroxy-propyl)-8-(2-methoxy-5-methyl-phenyl)-1,6-dimethyl-5,6,7,8-tetrahyd
58 61 1 0 0 
SMALL
USER_CHARGES


@<TRIPOS>ATOM
  1 O        0.1820     0.5630    -0.6390 O.2   1 <1>  -0.5740 
  2 C        1.2970     0.8870    -0.2860 C.2   1 <1>   0.6870 
  3 N        1.5260     2.1630     0.2240 N.am  1 <1>  -0.4250 
  4 N        2.3420    -0.0220    -0.3840 N.am  1 <1>  -0.4410 
  5 C        2.7880     2.5480     0.6550 C.2   1 <1>   0.7000 
  6 C        0.3940     3.1350     0.3060 C.3   1 <1>   0.1340 
  7 C        3.5870     0.3650     0.0710 C.2   1 <1>   0.4210 
  8 C        2.1230    -1.3900    -0.9420 C.3   1 <1>   0.0530 
  9 O        2.9870     3.6700     1.0930 O.2   1 <1>  -0.5740 
 10 C        3.8490     1.5920     0.5720 C.2   1 <1>   0.2710 
 11 C        0.3400     3.9940    -0.9610 C.3   1 <1>  -0.1660 
 12 N        4.7330    -0.3680     0.1000 N.pl3 1 <1>  -0.7030 
 13 N        5.2120     1.5940     0.9010 N.pl3 1 <1>  -0.7670 
 14 C       -0.8310     4.9730    -0.8910 C.3   1 <1>   0.1140 
 15 C        5.7010     0.3970     0.5980 C.cat 1 <1>   1.0690 
 16 C        6.0080     2.7140     1.4430 C.3   1 <1>   0.3490 
 17 O       -0.8400     5.7200    -2.0520 O.3   1 <1>  -0.6830 
 18 N        6.9880     0.0510     0.7980 N.pl3 1 <1>  -0.5790 
 19 C        7.4910     2.4880     1.1020 C.3   1 <1>  -0.0870 
 20 C        7.5110    -1.2160     0.4610 C.ar  1 <1>   0.3060 
 21 C        7.9230     1.0410     1.4070 C.3   1 <1>   0.1610 
 22 C        8.3860     3.4860     1.8520 C.3   1 <1>  -0.2460 
 23 C        7.4350    -1.7260    -0.8440 C.ar  1 <1>   0.0760 
 24 C        8.1120    -1.9850     1.4490 C.ar  1 <1>  -0.1560 
 25 O        6.8340    -0.9640    -1.8040 O.3   1 <1>  -0.3680 
 26 C        7.9600    -2.9830    -1.1250 C.ar  1 <1>  -0.1560 
 27 C        8.6310    -3.2360     1.1670 C.ar  1 <1>  -0.1500 
 28 C        7.0890    -1.1980    -3.1760 C.3   1 <1>   0.0330 
 29 C        8.5530    -3.7290    -0.1230 C.ar  1 <1>  -0.1560 
 30 C        9.2880    -4.0680     2.2550 C.3   1 <1>  -0.1030 
 31 H        0.5180     3.7670     1.1700 H     1 <1>   0.0730 
 32 H       -0.5370     2.6070     0.4270 H     1 <1>   0.0730 
 33 H        1.2370    -1.4140    -1.5540 H     1 <1>   0.0730 
 34 H        2.0030    -2.0940    -0.1370 H     1 <1>   0.0730 
 35 H        2.9580    -1.6830    -1.5540 H     1 <1>   0.0730 
 36 H        0.2060     3.3550    -1.8170 H     1 <1>   0.0730 
 37 H        1.2580     4.5460    -1.0580 H     1 <1>   0.0730 
 38 H        4.9140    -1.2890    -0.2910 H     1 <1>   0.4450 
 39 H       -0.7370     5.6470    -0.0560 H     1 <1>   0.0730 
 40 H       -1.7700     4.4500    -0.8290 H     1 <1>   0.0730 
 41 H        5.8720     2.7580     2.5110 H     1 <1>   0.0730 
 42 H        5.6730     3.6470     1.0180 H     1 <1>   0.0730 
 43 H       -0.0270     6.2550    -2.1270 H     1 <1>   0.3950 
 44 H        7.6250     2.6630     0.0470 H     1 <1>   0.0730 
 45 H        8.9160     0.8780     1.0220 H     1 <1>   0.0730 
 46 H        7.9470     0.8850     2.4730 H     1 <1>   0.0730 
 47 H        8.3010     3.3590     2.9180 H     1 <1>   0.0730 
 48 H        8.1100     4.4980     1.6060 H     1 <1>   0.0730 
 49 H        9.4170     3.3470     1.5750 H     1 <1>   0.0730 
 50 H        8.1740    -1.6060     2.4530 H     1 <1>   0.1440 
 51 H        7.9170    -3.4060    -2.1120 H     1 <1>   0.1440 
 52 H        6.6590    -0.3910    -3.7420 H     1 <1>   0.0730 
 53 H        6.6340    -2.1280    -3.4680 H     1 <1>   0.0730 
 54 H        8.1530    -1.2260    -3.3370 H     1 <1>   0.0730 
 55 H        8.9580    -4.7010    -0.3520 H     1 <1>   0.1440 
 56 H        8.9920    -3.7280     3.2320 H     1 <1>   0.0730 
 57 H       10.3580    -3.9960     2.1740 H     1 <1>   0.0730 
 58 H        9.0040    -5.1000     2.1570 H     1 <1>   0.0730 
@<TRIPOS>BOND
  1   1   2  2   
  2   2   3  am  
  3   2   4  am  
  4   3   5  am  
  5   3   6  1   
  6   4   7  1   
  7   4   8  1   
  8   5   9  2   
  9   5  10  1   
 10   6  11  1   
 11   6  31  1   
 12   6  32  1   
 13   7  10  2   
 14   7  12  1   
 15   8  33  1   
 16   8  34  1   
 17   8  35  1   
 18  10  13  1   
 19  11  14  1   
 20  11  36  1   
 21  11  37  1   
 22  12  15  ar  
 23  12  38  1   
 24  13  15  ar  
 25  13  16  1   
 26  14  17  1   
 27  14  39  1   
 28  14  40  1   
 29  15  18  ar  
 30  16  19  1   
 31  16  41  1   
 32  16  42  1   
 33  17  43  1   
 34  18  20  1   
 35  18  21  1   
 36  19  21  1   
 37  19  22  1   
 38  19  44  1   
 39  20  23  ar  
 40  20  24  ar  
 41  21  45  1   
 42  21  46  1   
 43  22  47  1   
 44  22  48  1   
 45  22  49  1   
 46  23  25  1   
 47  23  26  ar  
 48  24  27  ar  
 49  24  50  1   
 50  25  28  1   
 51  26  29  ar  
 52  26  51  1   
 53  27  29  ar  
 54  27  30  1   
 55  28  52  1   
 56  28  53  1   
 57  28  54  1   
 58  29  55  1   
 59  30  56  1   
 60  30  57  1   
 61  30  58  1   
@<TRIPOS>SUBSTRUCTURE
  1 ****  12 GROUP 4 **** **** 0

# MOE 2024.06 (io_trps.svl 2023.06)
