@<TRIPOS>MOLECULE
2-(8-Cyclopentyl-1,6,7-trimethyl-2,4-dioxo-1,2,4,8-tetrahydro-imidazo[2,1-f]puri
49 52 1 0 0 
SMALL
USER_CHARGES


@<TRIPOS>ATOM
  1 O        0.2310     0.2050     1.2680 O.2   1 <1>  -0.5750 
  2 C        1.4010     0.5260     1.2140 C.2   1 <1>   0.6860 
  3 N        1.7440     1.8690     1.1900 N.am  1 <1>  -0.4260 
  4 N        2.3900    -0.4480     1.1650 N.am  1 <1>  -0.4420 
  5 C        3.0690     2.2760     1.1800 C.2   1 <1>   0.6990 
  6 C        0.7350     2.8260     0.6330 C.3   1 <1>   0.1940 
  7 C        3.6990    -0.0330     1.0300 C.2   1 <1>   0.4200 
  8 C        2.0310    -1.8960     1.1630 C.3   1 <1>   0.0520 
  9 O        3.3480     3.4580     1.2930 O.2   1 <1>  -0.5750 
 10 C        4.0710     1.2710     1.0400 C.2   1 <1>   0.2700 
 11 C        0.7410     2.7870    -0.8980 C.2   1 <1>   0.5640 
 12 N        4.8040    -0.8140     0.8630 N.pl3 1 <1>  -0.7040 
 13 N        5.4670     1.2810     0.8750 N.pl3 1 <1>  -0.6330 
 14 O        1.6800     2.3000    -1.4830 O.2   1 <1>  -0.5750 
 15 N       -0.2950     3.2880    -1.6000 N.am  1 <1>  -0.8030 
 16 C        5.8480     0.0160     0.7600 C.cat 1 <1>   1.0690 
 17 C        6.5950     2.0540     0.7180 C.2   1 <1>   0.2340 
 18 N        7.1660    -0.0940     0.5560 N.pl3 1 <1>  -0.5720 
 19 C        7.6380     1.2130     0.5220 C.2   1 <1>   0.1570 
 20 C        6.5050     3.5670     0.7750 C.3   1 <1>  -0.1100 
 21 C        7.9770    -1.3200     0.3270 C.3   1 <1>   0.2410 
 22 C        9.1060     1.5320     0.2880 C.3   1 <1>  -0.1100 
 23 C        7.8270    -1.7780    -1.1220 C.3   1 <1>  -0.1680 
 24 C        7.4910    -2.5110     1.1620 C.3   1 <1>  -0.1680 
 25 C        6.6410    -2.7400    -1.1380 C.3   1 <1>  -0.1680 
 26 C        6.6430    -3.4040     0.2420 C.3   1 <1>  -0.1680 
 27 H        0.9550     3.8270     0.9580 H     1 <1>   0.0720 
 28 H       -0.2470     2.5750     0.9920 H     1 <1>   0.0720 
 29 H        1.0950    -2.0520     1.6740 H     1 <1>   0.0720 
 30 H        2.7860    -2.4730     1.6660 H     1 <1>   0.0720 
 31 H        1.9290    -2.2420     0.1490 H     1 <1>   0.0720 
 32 H        4.8790    -1.8210     0.7410 H     1 <1>   0.4440 
 33 H       -0.2730     3.2420    -2.6210 H     1 <1>   0.3640 
 34 H       -1.1400     3.6910    -1.1920 H     1 <1>   0.3640 
 35 H        6.1170     3.8760     1.7290 H     1 <1>   0.0720 
 36 H        5.8440     3.9240     0.0050 H     1 <1>   0.0720 
 37 H        7.4690     4.0190     0.6340 H     1 <1>   0.0720 
 38 H        9.0100    -1.1150     0.5520 H     1 <1>   0.0720 
 39 H        9.7060     1.1170     1.0770 H     1 <1>   0.0720 
 40 H        9.2700     2.5940     0.2640 H     1 <1>   0.0720 
 41 H        9.4290     1.1200    -0.6510 H     1 <1>   0.0720 
 42 H        8.7120    -2.3270    -1.3960 H     1 <1>   0.0720 
 43 H        7.7090    -0.9600    -1.8120 H     1 <1>   0.0720 
 44 H        6.9700    -2.2130     2.0540 H     1 <1>   0.0720 
 45 H        8.3540    -3.0780     1.4680 H     1 <1>   0.0720 
 46 H        6.7410    -3.4690    -1.9250 H     1 <1>   0.0720 
 47 H        5.7280    -2.1950    -1.2990 H     1 <1>   0.0720 
 48 H        5.6460    -3.5540     0.6160 H     1 <1>   0.0720 
 49 H        7.1130    -4.3710     0.1650 H     1 <1>   0.0720 
@<TRIPOS>BOND
  1   1   2  2   
  2   2   3  am  
  3   2   4  am  
  4   3   5  am  
  5   3   6  1   
  6   4   7  1   
  7   4   8  1   
  8   5   9  2   
  9   5  10  1   
 10   6  11  1   
 11   6  27  1   
 12   6  28  1   
 13   7  10  2   
 14   7  12  1   
 15   8  29  1   
 16   8  30  1   
 17   8  31  1   
 18  10  13  1   
 19  11  14  2   
 20  11  15  am  
 21  12  16  ar  
 22  12  32  1   
 23  13  16  ar  
 24  13  17  1   
 25  15  33  1   
 26  15  34  1   
 27  16  18  ar  
 28  17  19  2   
 29  17  20  1   
 30  18  19  1   
 31  18  21  1   
 32  19  22  1   
 33  20  35  1   
 34  20  36  1   
 35  20  37  1   
 36  21  23  1   
 37  21  24  1   
 38  21  38  1   
 39  22  39  1   
 40  22  40  1   
 41  22  41  1   
 42  23  25  1   
 43  23  42  1   
 44  23  43  1   
 45  24  26  1   
 46  24  44  1   
 47  24  45  1   
 48  25  26  1   
 49  25  46  1   
 50  25  47  1   
 51  26  48  1   
 52  26  49  1   
@<TRIPOS>SUBSTRUCTURE
  1 ****  10 GROUP 4 **** **** 0

# MOE 2024.06 (io_trps.svl 2023.06)
