@<TRIPOS>MOLECULE
5-Ethyl-7-methyl-2-m-tolyl-1,3-diaza-tricyclo[3.3.1.1*3,7*]decan-6-one
46 49 1 0 0 
SMALL
USER_CHARGES


@<TRIPOS>ATOM
  1 O        0.4110    -0.1330    -0.3420 O.2   1 <1>  -0.5700 
  2 C        1.2880    -0.8510     0.0320 C.2   1 <1>   0.4480 
  3 C        1.5280    -2.2570    -0.5250 C.3   1 <1>   0.0610 
  4 C        2.2500    -0.4510     1.1530 C.3   1 <1>   0.0610 
  5 C        1.3740    -3.2260     0.6530 C.3   1 <1>   0.3430 
  6 C        2.9990    -2.3280    -0.9580 C.3   1 <1>   0.1100 
  7 C        0.6110    -2.6500    -1.7120 C.3   1 <1>  -0.1600 
  8 C        2.0410    -1.4750     2.2750 C.3   1 <1>   0.3430 
  9 C        3.6850    -0.6290     0.6320 C.3   1 <1>   0.1100 
 10 C        2.0340     0.9850     1.6710 C.3   1 <1>  -0.2400 
 11 N        2.3200    -2.8580     1.7650 N.4   1 <1>  -0.9590 
 12 N        3.8710    -2.0270     0.2010 N.3   1 <1>  -0.8100 
 13 C       -0.8670    -2.8710    -1.3480 C.3   1 <1>  -0.2400 
 14 C        3.7310    -2.9730     1.3210 C.3   1 <1>   0.8360 
 15 C        4.0990    -4.4190     0.9540 C.ar  1 <1>  -0.1440 
 16 C        5.0830    -4.6630     0.0000 C.ar  1 <1>  -0.1500 
 17 C        3.5000    -5.5150     1.5730 C.ar  1 <1>  -0.1500 
 18 C        5.4400    -5.9520    -0.3550 C.ar  1 <1>  -0.1440 
 19 C        3.8540    -6.8050     1.2220 C.ar  1 <1>  -0.1500 
 20 C        4.8190    -7.0240     0.2590 C.ar  1 <1>  -0.1500 
 21 C        6.5120    -6.1930    -1.4040 C.3   1 <1>  -0.0970 
 22 H        1.5780    -4.2290     0.3120 H     1 <1>   0.0800 
 23 H        0.3580    -3.1920     1.0110 H     1 <1>   0.0800 
 24 H        3.2260    -3.3070    -1.3480 H     1 <1>   0.0800 
 25 H        3.1870    -1.6170    -1.7470 H     1 <1>   0.0800 
 26 H        0.9790    -3.5550    -2.1670 H     1 <1>   0.0800 
 27 H        0.6650    -1.8760    -2.4610 H     1 <1>   0.0800 
 28 H        1.0250    -1.4100     2.6300 H     1 <1>   0.0800 
 29 H        2.7010    -1.2440     3.0950 H     1 <1>   0.0800 
 30 H        4.4010    -0.3850     1.3990 H     1 <1>   0.0800 
 31 H        3.8610     0.0340    -0.2010 H     1 <1>   0.0800 
 32 H        1.0310     1.1070     2.0430 H     1 <1>   0.0800 
 33 H        2.1740     1.6930     0.8710 H     1 <1>   0.0800 
 34 H        2.7260     1.2250     2.4600 H     1 <1>   0.0800 
 35 H        2.2210    -3.5340     2.5260 H     1 <1>   0.4500 
 36 H       -0.9960    -3.7160    -0.6950 H     1 <1>   0.0800 
 37 H       -1.4290    -3.0650    -2.2460 H     1 <1>   0.0800 
 38 H       -1.2900    -1.9970    -0.8840 H     1 <1>   0.0800 
 39 H        4.3890    -2.6610     2.1170 H     1 <1>   0.0800 
 40 H        5.5890    -3.8410    -0.4800 H     1 <1>   0.1500 
 41 H        2.7560    -5.4050     2.3390 H     1 <1>   0.1500 
 42 H        3.3840    -7.6480     1.7010 H     1 <1>   0.1500 
 43 H        5.0900    -8.0320    -0.0070 H     1 <1>   0.1500 
 44 H        6.5550    -5.3740    -2.0990 H     1 <1>   0.0800 
 45 H        6.3040    -7.0930    -1.9550 H     1 <1>   0.0800 
 46 H        7.4710    -6.2940    -0.9280 H     1 <1>   0.0800 
@<TRIPOS>BOND
  1   1   2  2   
  2   2   3  1   
  3   2   4  1   
  4   3   5  1   
  5   3   6  1   
  6   3   7  1   
  7   4   8  1   
  8   4   9  1   
  9   4  10  1   
 10   5  11  1   
 11   5  22  1   
 12   5  23  1   
 13   6  12  1   
 14   6  24  1   
 15   6  25  1   
 16   7  13  1   
 17   7  26  1   
 18   7  27  1   
 19   8  11  1   
 20   8  28  1   
 21   8  29  1   
 22   9  12  1   
 23   9  30  1   
 24   9  31  1   
 25  10  32  1   
 26  10  33  1   
 27  10  34  1   
 28  11  14  1   
 29  11  35  1   
 30  12  14  1   
 31  13  36  1   
 32  13  37  1   
 33  13  38  1   
 34  14  15  1   
 35  14  39  1   
 36  15  16  ar  
 37  15  17  ar  
 38  16  18  ar  
 39  16  40  1   
 40  17  19  ar  
 41  17  41  1   
 42  18  20  ar  
 43  18  21  1   
 44  19  20  ar  
 45  19  42  1   
 46  20  43  1   
 47  21  44  1   
 48  21  45  1   
 49  21  46  1   
@<TRIPOS>SUBSTRUCTURE
  1 ****  14 GROUP 4 **** **** 0

# MOE 2024.06 (io_trps.svl 2023.06)
