@<TRIPOS>MOLECULE
N-Benzo[1,3]dioxol-5-yl-4-methyl-3-(piperidine-1-carbonyl)-benzenesulfonamide
50 53 1 0 0 
SMALL
USER_CHARGES


@<TRIPOS>ATOM
  1 S       -0.4120    -0.6430    -2.4880 S.o2  1 <1>   1.4470 
  2 O        0.6470    -1.5310    -2.9050 O.2   1 <1>  -0.6500 
  3 O       -1.4850    -0.2730    -3.3810 O.2   1 <1>  -0.6500 
  4 N        0.4070     0.8080    -2.0660 N.am  1 <1>  -0.7570 
  5 C       -1.0870    -1.1830    -0.8880 C.ar  1 <1>  -0.0090 
  6 C       -0.2340     1.7990    -1.3430 C.ar  1 <1>   0.1990 
  7 C       -2.0670    -0.4410    -0.2470 C.ar  1 <1>  -0.1500 
  8 C       -0.6260    -2.3210    -0.2390 C.ar  1 <1>  -0.1500 
  9 C        0.0580     1.9590     0.0090 C.ar  1 <1>  -0.1500 
 10 C       -1.2510     2.5560    -1.9310 C.ar  1 <1>  -0.1500 
 11 C       -2.5630    -0.7470     1.0170 C.ar  1 <1>   0.0860 
 12 C       -1.1190    -2.6790     1.0040 C.ar  1 <1>  -0.1500 
 13 C       -0.7390     2.8070     0.7460 C.ar  1 <1>   0.0830 
 14 C       -2.0310     3.4200    -1.1740 C.ar  1 <1>  -0.1500 
 15 C       -2.0760    -1.9030     1.6360 C.ar  1 <1>  -0.1430 
 16 C       -3.5250     0.1570     1.6270 C.2   1 <1>   0.5440 
 17 O       -0.6920     3.0450     2.0590 O.3   1 <1>  -0.3630 
 18 C       -1.7640     3.5060     0.1780 C.ar  1 <1>   0.0830 
 19 C       -2.5830    -2.3170     3.0120 C.3   1 <1>  -0.0970 
 20 O       -3.2520     0.6960     2.6850 O.2   1 <1>  -0.5700 
 21 N       -4.7270     0.4560     1.0160 N.am  1 <1>  -0.6600 
 22 C       -1.8470     3.8220     2.3670 C.3   1 <1>   0.4000 
 23 O       -2.4210     4.2020     1.1150 O.3   1 <1>  -0.3620 
 24 C       -5.3130    -0.3250    -0.1080 C.3   1 <1>   0.1400 
 25 C       -5.5530     1.6200     1.4410 C.3   1 <1>   0.1400 
 26 C       -5.5190     0.5920    -1.3200 C.3   1 <1>  -0.1600 
 27 C       -5.7620     2.5580     0.2470 C.3   1 <1>  -0.1600 
 28 C       -6.3640     1.8220    -0.9590 C.3   1 <1>  -0.1600 
 29 H        1.3620     0.5830    -1.8080 H     1 <1>   0.4200 
 30 H       -2.4610     0.4340    -0.7320 H     1 <1>   0.1500 
 31 H        0.1280    -2.9320    -0.7060 H     1 <1>   0.1500 
 32 H        0.8460     1.4120     0.4890 H     1 <1>   0.1500 
 33 H       -1.4430     2.4420    -2.9840 H     1 <1>   0.1500 
 34 H       -0.7430    -3.5690     1.4800 H     1 <1>   0.1500 
 35 H       -2.8290     3.9940    -1.6100 H     1 <1>   0.1500 
 36 H       -2.2350    -3.2980     3.2770 H     1 <1>   0.0800 
 37 H       -2.2340    -1.6190     3.7530 H     1 <1>   0.0800 
 38 H       -3.6580    -2.3220     3.0270 H     1 <1>   0.0800 
 39 H       -1.5610     4.6980     2.9210 H     1 <1>   0.0800 
 40 H       -2.5480     3.2130     2.9120 H     1 <1>   0.0800 
 41 H       -6.2620    -0.7230     0.2070 H     1 <1>   0.0800 
 42 H       -4.6830    -1.1540    -0.3760 H     1 <1>   0.0800 
 43 H       -5.0730     2.1610     2.2380 H     1 <1>   0.0800 
 44 H       -6.5020     1.2640     1.8020 H     1 <1>   0.0800 
 45 H       -6.0050     0.0390    -2.1040 H     1 <1>   0.0800 
 46 H       -4.5610     0.9090    -1.6930 H     1 <1>   0.0800 
 47 H       -4.8130     2.9850    -0.0240 H     1 <1>   0.0800 
 48 H       -6.4100     3.3650     0.5400 H     1 <1>   0.0800 
 49 H       -7.3660     1.5080    -0.7190 H     1 <1>   0.0800 
 50 H       -6.4170     2.4880    -1.8030 H     1 <1>   0.0800 
@<TRIPOS>BOND
  1   1   2  2   
  2   1   3  2   
  3   1   4  am  
  4   1   5  1   
  5   4   6  1   
  6   4  29  1   
  7   5   7  ar  
  8   5   8  ar  
  9   6   9  ar  
 10   6  10  ar  
 11   7  11  ar  
 12   7  30  1   
 13   8  12  ar  
 14   8  31  1   
 15   9  13  ar  
 16   9  32  1   
 17  10  14  ar  
 18  10  33  1   
 19  11  15  ar  
 20  11  16  1   
 21  12  15  ar  
 22  12  34  1   
 23  13  17  1   
 24  13  18  ar  
 25  14  18  ar  
 26  14  35  1   
 27  15  19  1   
 28  16  20  2   
 29  16  21  am  
 30  17  22  1   
 31  18  23  1   
 32  19  36  1   
 33  19  37  1   
 34  19  38  1   
 35  21  24  1   
 36  21  25  1   
 37  22  23  1   
 38  22  39  1   
 39  22  40  1   
 40  24  26  1   
 41  24  41  1   
 42  24  42  1   
 43  25  27  1   
 44  25  43  1   
 45  25  44  1   
 46  26  28  1   
 47  26  45  1   
 48  26  46  1   
 49  27  28  1   
 50  27  47  1   
 51  27  48  1   
 52  28  49  1   
 53  28  50  1   
@<TRIPOS>SUBSTRUCTURE
  1 ****   7 GROUP 4 **** **** 0

# MOE 2024.06 (io_trps.svl 2023.06)
