@<TRIPOS>MOLECULE
3-(3-Methoxy-phenyl)-propylamine
28 28 1 0 0 
SMALL
USER_CHARGES


@<TRIPOS>ATOM
  1 O       -0.2340    -0.9400     0.7440 O.3   1 <1>  -0.3630 
  2 C       -0.1680    -1.9160    -0.1950 C.ar  1 <1>   0.0830 
  3 C       -1.3870    -0.1400     0.8880 C.3   1 <1>   0.0400 
  4 C        1.0230    -2.6170    -0.2780 C.ar  1 <1>  -0.1500 
  5 C       -1.2140    -2.2400    -1.0540 C.ar  1 <1>  -0.1500 
  6 C        1.1850    -3.6380    -1.2000 C.ar  1 <1>  -0.1430 
  7 C       -1.0550    -3.2550    -1.9810 C.ar  1 <1>  -0.1500 
  8 C        0.1390    -3.9520    -2.0540 C.ar  1 <1>  -0.1500 
  9 C        2.4920    -4.4060    -1.2610 C.3   1 <1>  -0.0170 
 10 C        2.4750    -5.5150    -0.2010 C.3   1 <1>  -0.1600 
 11 C        3.7800    -6.3040    -0.1990 C.3   1 <1>   0.3430 
 12 N        3.7090    -7.3390     0.8580 N.4   1 <1>  -0.8530 
 13 H       -1.2060     0.5690     1.6750 H     1 <1>   0.0800 
 14 H       -2.2190    -0.7700     1.1470 H     1 <1>   0.0800 
 15 H       -1.5680     0.3790    -0.0370 H     1 <1>   0.0800 
 16 H        1.8180    -2.3460     0.3920 H     1 <1>   0.1500 
 17 H       -2.1500    -1.7160    -1.0180 H     1 <1>   0.1500 
 18 H       -1.8630    -3.5020    -2.6480 H     1 <1>   0.1500 
 19 H        0.2420    -4.7380    -2.7820 H     1 <1>   0.1500 
 20 H        3.3080    -3.7260    -1.0840 H     1 <1>   0.0800 
 21 H        2.6180    -4.8250    -2.2450 H     1 <1>   0.0800 
 22 H        1.6460    -6.1700    -0.4090 H     1 <1>   0.0800 
 23 H        2.3200    -5.0600     0.7620 H     1 <1>   0.0800 
 24 H        4.6070    -5.6380    -0.0100 H     1 <1>   0.0800 
 25 H        3.9270    -6.7670    -1.1630 H     1 <1>   0.0800 
 26 H        3.5680    -6.9070     1.7790 H     1 <1>   0.4500 
 27 H        4.5720    -7.8950     0.8940 H     1 <1>   0.4500 
 28 H        2.9230    -7.9780     0.6890 H     1 <1>   0.4500 
@<TRIPOS>BOND
  1   1   2  1   
  2   1   3  1   
  3   2   4  ar  
  4   2   5  ar  
  5   3  13  1   
  6   3  14  1   
  7   3  15  1   
  8   4   6  ar  
  9   4  16  1   
 10   5   7  ar  
 11   5  17  1   
 12   6   8  ar  
 13   6   9  1   
 14   7   8  ar  
 15   7  18  1   
 16   8  19  1   
 17   9  10  1   
 18   9  20  1   
 19   9  21  1   
 20  10  11  1   
 21  10  22  1   
 22  10  23  1   
 23  11  12  1   
 24  11  24  1   
 25  11  25  1   
 26  12  26  1   
 27  12  27  1   
 28  12  28  1   
@<TRIPOS>SUBSTRUCTURE
  1 ****   6 GROUP 4 **** **** 0

# MOE 2024.06 (io_trps.svl 2023.06)
