@<TRIPOS>MOLECULE
5-Bromo-furan-2-carboxylic acid {2-[4-(furan-2-carbonyl)-piperazin-1-yl]-2-oxo-e
41 43 1 0 0 
SMALL
USER_CHARGES


@<TRIPOS>ATOM
  1 BR      -0.5310    -0.1390     0.0350 Br    1 <1>  -0.0580 
  2 C       -1.5210     1.5060    -0.0580 C.2   1 <1>   0.1980 
  3 O       -0.8440     2.6250    -0.0870 O.3   1 <1>  -0.2800 
  4 C       -2.8530     1.6920    -0.0980 C.2   1 <1>  -0.1500 
  5 C       -1.7330     3.6220    -0.1500 C.2   1 <1>   0.0550 
  6 C       -2.9900     3.0800    -0.1590 C.2   1 <1>  -0.1500 
  7 C       -1.3400     5.0160    -0.2000 C.2   1 <1>   0.7150 
  8 O       -2.1850     5.8850    -0.2850 O.2   1 <1>  -0.5700 
  9 N       -0.0480     5.4470    -0.1560 N.am  1 <1>  -0.7300 
 10 C        1.2010     4.6570     0.0470 C.3   1 <1>   0.2010 
 11 C        2.4660     5.5170     0.1780 C.2   1 <1>   0.5690 
 12 O        2.3550     6.7170     0.0600 O.2   1 <1>  -0.5700 
 13 N        3.6860     4.9320     0.4200 N.am  1 <1>  -0.6600 
 14 C        4.9250     5.7570     0.5850 C.3   1 <1>   0.1400 
 15 C        3.9390     3.4580     0.5200 C.3   1 <1>   0.1400 
 16 C        6.0240     5.3170    -0.3960 C.3   1 <1>   0.1400 
 17 C        5.0210     3.0270    -0.4830 C.3   1 <1>   0.1400 
 18 N        6.2600     3.8420    -0.3010 N.am  1 <1>  -0.6600 
 19 C        7.3930     3.3050     0.2800 C.2   1 <1>   0.7150 
 20 O        7.2860     2.2390     0.8610 O.2   1 <1>  -0.5700 
 21 C        8.6730     3.9780     0.2030 C.2   1 <1>   0.0550 
 22 O        9.5250     3.9560     1.2250 O.3   1 <1>  -0.2800 
 23 C        9.2390     4.7030    -0.8050 C.2   1 <1>  -0.1500 
 24 C       10.6000     4.6360     0.9020 C.2   1 <1>  -0.0100 
 25 C       10.4870     5.1290    -0.3490 C.2   1 <1>  -0.1500 
 26 H       -3.6420     0.9610    -0.0870 H     1 <1>   0.1500 
 27 H       -3.9220     3.6190    -0.2050 H     1 <1>   0.1500 
 28 H        0.1010     6.4620    -0.1880 H     1 <1>   0.3700 
 29 H        1.3270     3.9930    -0.7880 H     1 <1>   0.0800 
 30 H        1.0960     4.0710     0.9420 H     1 <1>   0.0800 
 31 H        5.2860     5.6480     1.5930 H     1 <1>   0.0800 
 32 H        4.7120     6.8010     0.4280 H     1 <1>   0.0800 
 33 H        3.0460     2.8910     0.3340 H     1 <1>   0.0800 
 34 H        4.2770     3.2240     1.5160 H     1 <1>   0.0800 
 35 H        6.9210     5.8650    -0.1720 H     1 <1>   0.0800 
 36 H        5.7240     5.5650    -1.3990 H     1 <1>   0.0800 
 37 H        4.6540     3.1630    -1.4850 H     1 <1>   0.0800 
 38 H        5.2330     1.9800    -0.3530 H     1 <1>   0.0800 
 39 H        8.8260     4.9110    -1.7760 H     1 <1>   0.1500 
 40 H       11.4000     4.7190     1.6170 H     1 <1>   0.1500 
 41 H       11.1940     5.7230    -0.9030 H     1 <1>   0.1500 
@<TRIPOS>BOND
  1   1   2  1   
  2   2   3  1   
  3   2   4  2   
  4   3   5  1   
  5   4   6  1   
  6   4  26  1   
  7   5   6  2   
  8   5   7  1   
  9   6  27  1   
 10   7   8  2   
 11   7   9  am  
 12   9  10  1   
 13   9  28  1   
 14  10  11  1   
 15  10  29  1   
 16  10  30  1   
 17  11  12  2   
 18  11  13  am  
 19  13  14  1   
 20  13  15  1   
 21  14  16  1   
 22  14  31  1   
 23  14  32  1   
 24  15  17  1   
 25  15  33  1   
 26  15  34  1   
 27  16  18  1   
 28  16  35  1   
 29  16  36  1   
 30  17  18  1   
 31  17  37  1   
 32  17  38  1   
 33  18  19  am  
 34  19  20  2   
 35  19  21  1   
 36  21  22  1   
 37  21  23  2   
 38  22  24  1   
 39  23  25  1   
 40  23  39  1   
 41  24  25  2   
 42  24  40  1   
 43  25  41  1   
@<TRIPOS>SUBSTRUCTURE
  1 ****  15 GROUP 4 **** **** 0

# MOE 2024.06 (io_trps.svl 2023.06)
