@<TRIPOS>MOLECULE
3-Methyl-7-((E)-3-phenyl-allyl)-8-piperazin-1-yl-3,7-dihydro-purine-2,6-dione
51 54 1 0 0 
SMALL
USER_CHARGES


@<TRIPOS>ATOM
  1 O        4.2370    -1.3530     3.1590 O.2   1 <1>  -0.5750 
  2 C        3.6930    -2.1940     2.4810 C.2   1 <1>   0.6860 
  3 N        3.3700    -1.9800     1.1470 N.am  1 <1>  -0.4420 
  4 N        3.3870    -3.3920     3.0600 N.am  1 <1>  -0.4950 
  5 C        2.7880    -3.0300     0.4510 C.2   1 <1>   0.4200 
  6 C        3.7620    -0.7160     0.4590 C.3   1 <1>   0.0520 
  7 C        2.8110    -4.4320     2.3880 C.2   1 <1>   0.6990 
  8 N        2.4470    -3.0700    -0.8650 N.pl3 1 <1>  -0.7040 
  9 C        2.4960    -4.2290     1.0020 C.2   1 <1>   0.2700 
 10 O        2.5890    -5.4710     2.9810 O.2   1 <1>  -0.5750 
 11 C        1.9670    -4.2860    -1.1410 C.cat 1 <1>   1.0690 
 12 N        1.9910    -5.0470    -0.0380 N.pl3 1 <1>  -0.7670 
 13 N        1.5160    -4.6470    -2.3760 N.pl3 1 <1>  -0.5960 
 14 C        2.3460    -6.4840     0.0110 C.3   1 <1>   0.4870 
 15 C        1.8880    -3.8940    -3.6280 C.3   1 <1>   0.1600 
 16 C        0.3540    -5.5870    -2.5660 C.3   1 <1>   0.1600 
 17 C        3.8960    -6.4250     0.0150 C.2   1 <1>  -0.2950 
 18 C        2.0530    -4.8260    -4.8530 C.3   1 <1>   0.3370 
 19 C        0.5390    -6.5140    -3.7920 C.3   1 <1>   0.3370 
 20 C        5.2410    -6.3730     0.0190 C.2   1 <1>  -0.1860 
 21 N        0.8800    -5.7450    -5.0340 N.4   1 <1>  -0.9090 
 22 C        5.9020    -5.0980     0.0760 C.ar  1 <1>   0.0200 
 23 C        6.2320    -4.5360     1.3080 C.ar  1 <1>  -0.1570 
 24 C        6.1600    -4.3680    -1.0830 C.ar  1 <1>  -0.1570 
 25 C        6.7800    -3.2680     1.3840 C.ar  1 <1>  -0.1570 
 26 C        6.7110    -3.1000    -1.0120 C.ar  1 <1>  -0.1570 
 27 C        7.0160    -2.5470     0.2220 C.ar  1 <1>  -0.1570 
 28 H        3.6370    -3.5170     4.0400 H     1 <1>   0.3640 
 29 H        2.9120    -0.2950    -0.0510 H     1 <1>   0.0720 
 30 H        4.5510    -0.9140    -0.2460 H     1 <1>   0.0720 
 31 H        4.1200     0.0090     1.1700 H     1 <1>   0.0720 
 32 H        2.5510    -2.2860    -1.5030 H     1 <1>   0.4450 
 33 H        1.9650    -6.9370     0.9140 H     1 <1>   0.0720 
 34 H        1.9830    -7.0200    -0.8480 H     1 <1>   0.0720 
 35 H        1.1230    -3.1650    -3.8430 H     1 <1>   0.0720 
 36 H        2.8160    -3.3650    -3.4820 H     1 <1>   0.0720 
 37 H        0.1900    -6.1850    -1.6850 H     1 <1>   0.0720 
 38 H       -0.5420    -5.0040    -2.7140 H     1 <1>   0.0720 
 39 H        3.8470    -7.5010     0.0210 H     1 <1>   0.1430 
 40 H        2.9500    -5.4130    -4.7230 H     1 <1>   0.0720 
 41 H        2.1850    -4.2280    -5.7420 H     1 <1>   0.0720 
 42 H       -0.3680    -7.0780    -3.9520 H     1 <1>   0.0720 
 43 H        1.3280    -7.2190    -3.5800 H     1 <1>   0.0720 
 44 H        5.8940    -7.2340     0.0080 H     1 <1>   0.1430 
 45 H        1.0820    -6.4060    -5.8020 H     1 <1>   0.4450 
 46 H        0.0570    -5.2080    -5.3510 H     1 <1>   0.4450 
 47 H        6.0580    -5.0980     2.2130 H     1 <1>   0.1430 
 48 H        5.9350    -4.8010    -2.0430 H     1 <1>   0.1430 
 49 H        7.0290    -2.8420     2.3450 H     1 <1>   0.1430 
 50 H        6.9170    -2.5450    -1.9150 H     1 <1>   0.1430 
 51 H        7.4500    -1.5630     0.2840 H     1 <1>   0.1430 
@<TRIPOS>BOND
  1   1   2  2   
  2   2   3  am  
  3   2   4  am  
  4   3   5  1   
  5   3   6  1   
  6   4   7  am  
  7   4  28  1   
  8   5   8  1   
  9   5   9  2   
 10   6  29  1   
 11   6  30  1   
 12   6  31  1   
 13   7   9  1   
 14   7  10  2   
 15   8  11  ar  
 16   8  32  1   
 17   9  12  1   
 18  11  12  ar  
 19  11  13  ar  
 20  12  14  1   
 21  13  15  1   
 22  13  16  1   
 23  14  17  1   
 24  14  33  1   
 25  14  34  1   
 26  15  18  1   
 27  15  35  1   
 28  15  36  1   
 29  16  19  1   
 30  16  37  1   
 31  16  38  1   
 32  17  20  2   
 33  17  39  1   
 34  18  21  1   
 35  18  40  1   
 36  18  41  1   
 37  19  21  1   
 38  19  42  1   
 39  19  43  1   
 40  20  22  1   
 41  20  44  1   
 42  21  45  1   
 43  21  46  1   
 44  22  23  ar  
 45  22  24  ar  
 46  23  25  ar  
 47  23  47  1   
 48  24  26  ar  
 49  24  48  1   
 50  25  27  ar  
 51  25  49  1   
 52  26  27  ar  
 53  26  50  1   
 54  27  51  1   
@<TRIPOS>SUBSTRUCTURE
  1 ****   5 GROUP 4 **** **** 0

# MOE 2024.06 (io_trps.svl 2023.06)
