@<TRIPOS>MOLECULE
7-(2-Ethoxy-ethyl)-3-methyl-8-piperazin-1-yl-3,7-dihydro-purine-2,6-dione
47 49 1 0 0 
SMALL
USER_CHARGES


@<TRIPOS>ATOM
  1 O        0.7300     0.8470     0.7630 O.2   1 <1>  -0.5750 
  2 C        1.7620     1.3020     0.3290 C.2   1 <1>   0.6860 
  3 N        2.9820     0.6640     0.4960 N.am  1 <1>  -0.4420 
  4 N        1.7170     2.4880    -0.3430 N.am  1 <1>  -0.4960 
  5 C        4.1090     1.2860    -0.0200 C.2   1 <1>   0.4200 
  6 C        3.0690    -0.6350     1.2260 C.3   1 <1>   0.0510 
  7 C        2.8170     3.1110    -0.8580 C.2   1 <1>   0.6990 
  8 N        5.3990     0.8670     0.0690 N.pl3 1 <1>  -0.7040 
  9 C        4.0840     2.4560    -0.6960 C.2   1 <1>   0.2700 
 10 O        2.6780     4.1860    -1.4080 O.2   1 <1>  -0.5750 
 11 C        6.1820     1.7570    -0.5470 C.cat 1 <1>   1.0680 
 12 N        5.4190     2.7440    -1.0510 N.pl3 1 <1>  -0.7680 
 13 N        7.5340     1.6050    -0.6070 N.pl3 1 <1>  -0.5970 
 14 C        5.8100     4.1130    -1.5220 C.3   1 <1>   0.3470 
 15 C        8.3830     2.2490    -1.6660 C.3   1 <1>   0.1600 
 16 C        8.3050     1.1400     0.6000 C.3   1 <1>   0.1600 
 17 C        6.2340     5.0130    -0.3500 C.3   1 <1>   0.1120 
 18 C        9.6660     1.4510    -1.9890 C.3   1 <1>   0.3360 
 19 C        9.5920     0.3620     0.2420 C.3   1 <1>   0.3360 
 20 O        7.1790     4.3550     0.4510 O.3   1 <1>  -0.5650 
 21 N       10.4320     1.0970    -0.7530 N.4   1 <1>  -0.9090 
 22 C        7.7210     5.1450     1.4630 C.3   1 <1>   0.1120 
 23 C        8.9790     5.8250     0.9290 C.3   1 <1>  -0.2480 
 24 H        0.8080     2.9350    -0.4430 H     1 <1>   0.3630 
 25 H        2.0920    -1.0780     1.3330 H     1 <1>   0.0710 
 26 H        3.4790    -0.4750     2.2080 H     1 <1>   0.0710 
 27 H        3.6890    -1.3260     0.6830 H     1 <1>   0.0710 
 28 H        5.7000     0.0050     0.5090 H     1 <1>   0.4440 
 29 H        4.9880     4.5770    -2.0370 H     1 <1>   0.0710 
 30 H        6.6100     4.0590    -2.2330 H     1 <1>   0.0710 
 31 H        8.6620     3.2390    -1.3440 H     1 <1>   0.0710 
 32 H        7.8160     2.3400    -2.5770 H     1 <1>   0.0710 
 33 H        7.6910     0.5180     1.2270 H     1 <1>   0.0710 
 34 H        8.5760     2.0050     1.1830 H     1 <1>   0.0710 
 35 H        5.3790     5.2560     0.2580 H     1 <1>   0.0710 
 36 H        6.6630     5.9260    -0.7280 H     1 <1>   0.0710 
 37 H       10.2890     2.0320    -2.6500 H     1 <1>   0.0710 
 38 H        9.3910     0.5490    -2.5110 H     1 <1>   0.0710 
 39 H        9.3170    -0.5990    -0.1620 H     1 <1>   0.0710 
 40 H       10.1620     0.1860     1.1400 H     1 <1>   0.0710 
 41 H       10.8090     1.9540    -0.3230 H     1 <1>   0.4440 
 42 H       11.2510     0.5240    -1.0060 H     1 <1>   0.4440 
 43 H        7.9760     4.4980     2.2850 H     1 <1>   0.0710 
 44 H        6.9940     5.8650     1.8040 H     1 <1>   0.0710 
 45 H        9.6870     5.0940     0.5880 H     1 <1>   0.0710 
 46 H        9.4360     6.3940     1.7190 H     1 <1>   0.0710 
 47 H        8.7410     6.5030     0.1300 H     1 <1>   0.0710 
@<TRIPOS>BOND
  1   1   2  2   
  2   2   3  am  
  3   2   4  am  
  4   3   5  1   
  5   3   6  1   
  6   4   7  am  
  7   4  24  1   
  8   5   8  1   
  9   5   9  2   
 10   6  25  1   
 11   6  26  1   
 12   6  27  1   
 13   7   9  1   
 14   7  10  2   
 15   8  11  ar  
 16   8  28  1   
 17   9  12  1   
 18  11  12  ar  
 19  11  13  ar  
 20  12  14  1   
 21  13  15  1   
 22  13  16  1   
 23  14  17  1   
 24  14  29  1   
 25  14  30  1   
 26  15  18  1   
 27  15  31  1   
 28  15  32  1   
 29  16  19  1   
 30  16  33  1   
 31  16  34  1   
 32  17  20  1   
 33  17  35  1   
 34  17  36  1   
 35  18  21  1   
 36  18  37  1   
 37  18  38  1   
 38  19  21  1   
 39  19  39  1   
 40  19  40  1   
 41  20  22  1   
 42  21  41  1   
 43  21  42  1   
 44  22  23  1   
 45  22  43  1   
 46  22  44  1   
 47  23  45  1   
 48  23  46  1   
 49  23  47  1   
@<TRIPOS>SUBSTRUCTURE
  1 ****  11 GROUP 4 **** **** 0

# MOE 2024.06 (io_trps.svl 2023.06)
