@<TRIPOS>MOLECULE
2-(2,4-Dimethyl-phenoxy)-ethylamine
28 28 1 0 0 
SMALL
USER_CHARGES


@<TRIPOS>ATOM
  1 O       -0.1890     0.3070     0.2260 O.3   1 <1>  -0.3630 
  2 C       -1.4910     0.6820     0.1070 C.ar  1 <1>   0.0830 
  3 C        0.8580     1.2570     0.2020 C.3   1 <1>   0.1200 
  4 C       -2.4610    -0.3140     0.1920 C.ar  1 <1>  -0.1440 
  5 C       -1.8790     2.0040    -0.0980 C.ar  1 <1>  -0.1500 
  6 C        2.1840     0.4940     0.2990 C.3   1 <1>   0.3430 
  7 C       -3.7980     0.0240     0.0610 C.ar  1 <1>  -0.1500 
  8 C       -2.0860    -1.7700     0.4310 C.3   1 <1>  -0.0960 
  9 C       -3.2170     2.3250    -0.2250 C.ar  1 <1>  -0.1500 
 10 N        2.1220    -0.7270    -0.5520 N.4   1 <1>  -0.8530 
 11 C       -4.1830     1.3380    -0.1490 C.ar  1 <1>  -0.1430 
 12 C       -5.6540     1.6880    -0.2880 C.3   1 <1>  -0.0970 
 13 H        0.7380     1.9300     1.0340 H     1 <1>   0.0800 
 14 H        0.8040     1.8040    -0.7230 H     1 <1>   0.0800 
 15 H       -1.1680     2.8050    -0.1620 H     1 <1>   0.1500 
 16 H        2.3360     0.2110     1.3280 H     1 <1>   0.0800 
 17 H        3.0030     1.1300     0.0030 H     1 <1>   0.0800 
 18 H       -4.5540    -0.7390     0.1250 H     1 <1>   0.1500 
 19 H       -1.5600    -2.1570    -0.4210 H     1 <1>   0.0800 
 20 H       -2.9640    -2.3710     0.5900 H     1 <1>   0.0800 
 21 H       -1.4630    -1.8510     1.3030 H     1 <1>   0.0800 
 22 H       -3.5080     3.3490    -0.3820 H     1 <1>   0.1500 
 23 H        1.1930    -1.1500    -0.3960 H     1 <1>   0.4500 
 24 H        2.8470    -1.4130    -0.3160 H     1 <1>   0.4500 
 25 H        2.1770    -0.4990    -1.5500 H     1 <1>   0.4500 
 26 H       -6.1830     0.8940    -0.7840 H     1 <1>   0.0800 
 27 H       -5.7760     2.5880    -0.8650 H     1 <1>   0.0800 
 28 H       -6.0850     1.8390     0.6850 H     1 <1>   0.0800 
@<TRIPOS>BOND
  1   1   2  1   
  2   1   3  1   
  3   2   4  ar  
  4   2   5  ar  
  5   3   6  1   
  6   3  13  1   
  7   3  14  1   
  8   4   7  ar  
  9   4   8  1   
 10   5   9  ar  
 11   5  15  1   
 12   6  10  1   
 13   6  16  1   
 14   6  17  1   
 15   7  11  ar  
 16   7  18  1   
 17   8  19  1   
 18   8  20  1   
 19   8  21  1   
 20   9  11  ar  
 21   9  22  1   
 22  10  23  1   
 23  10  24  1   
 24  10  25  1   
 25  11  12  1   
 26  12  26  1   
 27  12  27  1   
 28  12  28  1   
@<TRIPOS>SUBSTRUCTURE
  1 ****   2 GROUP 4 **** **** 0

# MOE 2024.06 (io_trps.svl 2023.06)
