@<TRIPOS>MOLECULE
1-(1-Acetyl-2,3-dihydro-1H-indol-5-yl)-2-[4-(2-fluoro-phenyl)-piperazin-1-yl]-et
52 55 1 0 0 
SMALL
USER_CHARGES


@<TRIPOS>ATOM
  1 F        0.3980    -0.4350    -1.4900 F     1 <1>  -0.1900 
  2 C       -0.6210    -0.8710    -0.7850 C.ar  1 <1>   0.1900 
  3 C       -1.7300    -0.0410    -0.5790 C.ar  1 <1>   0.1000 
  4 C       -0.5340    -2.1540    -0.2820 C.ar  1 <1>  -0.1500 
  5 N       -1.8120     1.2670    -1.0910 N.pl3 1 <1>  -0.8380 
  6 C       -2.7710    -0.5780     0.1760 C.ar  1 <1>  -0.1500 
  7 C       -1.5880    -2.6550     0.4630 C.ar  1 <1>  -0.1500 
  8 C       -0.8000     2.2830    -0.6770 C.3   1 <1>   0.2090 
  9 C       -3.0980     1.8800    -1.5410 C.3   1 <1>   0.2090 
 10 C       -2.7030    -1.8640     0.6890 C.ar  1 <1>  -0.1500 
 11 C       -1.3940     3.2790     0.3370 C.3   1 <1>   0.1100 
 12 C       -3.6360     2.9000    -0.5160 C.3   1 <1>   0.1100 
 13 N       -2.6310     3.9280    -0.1550 N.3   1 <1>  -0.8100 
 14 C       -3.1210     4.9330     0.8260 C.3   1 <1>   0.1710 
 15 C       -4.2630     5.8350     0.3340 C.2   1 <1>   0.4230 
 16 O       -3.9490     6.9050    -0.1290 O.2   1 <1>  -0.5700 
 17 C       -5.6490     5.4280     0.4560 C.ar  1 <1>   0.0860 
 18 C       -6.6420     6.1480    -0.2190 C.ar  1 <1>  -0.1500 
 19 C       -6.0830     4.3400     1.2300 C.ar  1 <1>  -0.1500 
 20 C       -7.9700     5.7900    -0.1230 C.ar  1 <1>  -0.1430 
 21 C       -7.4170     3.9850     1.3200 C.ar  1 <1>  -0.1500 
 22 C       -8.3790     4.7170     0.6350 C.ar  1 <1>   0.1170 
 23 C       -9.1560     6.4520    -0.7750 C.3   1 <1>  -0.0170 
 24 N       -9.7640     4.5450     0.5860 N.am  1 <1>  -0.4770 
 25 C      -10.3450     5.6200    -0.2680 C.3   1 <1>   0.1400 
 26 C      -10.5330     3.5710     1.1890 C.2   1 <1>   0.5690 
 27 O      -10.0730     2.6790     1.8570 O.2   1 <1>  -0.5700 
 28 C      -12.0370     3.5960     1.0200 C.3   1 <1>  -0.1790 
 29 H        0.3410    -2.7470    -0.4730 H     1 <1>   0.1500 
 30 H       -3.6420     0.0140     0.3730 H     1 <1>   0.1500 
 31 H       -1.5410    -3.6540     0.8630 H     1 <1>   0.1500 
 32 H       -0.4620     2.8180    -1.5470 H     1 <1>   0.0800 
 33 H        0.0520     1.7950    -0.2360 H     1 <1>   0.0800 
 34 H       -3.8300     1.1110    -1.7120 H     1 <1>   0.0800 
 35 H       -2.9310     2.3840    -2.4770 H     1 <1>   0.0800 
 36 H       -3.5230    -2.2530     1.2680 H     1 <1>   0.1500 
 37 H       -0.6540     4.0330     0.5420 H     1 <1>   0.0800 
 38 H       -1.5980     2.7520     1.2530 H     1 <1>   0.0800 
 39 H       -3.9470     2.3700     0.3670 H     1 <1>   0.0800 
 40 H       -4.4980     3.3760    -0.9470 H     1 <1>   0.0800 
 41 H       -2.3010     5.5900     1.0620 H     1 <1>   0.0800 
 42 H       -3.3950     4.4460     1.7420 H     1 <1>   0.0800 
 43 H       -6.3590     6.9950    -0.8220 H     1 <1>   0.1500 
 44 H       -5.3790     3.7490     1.7830 H     1 <1>   0.1500 
 45 H       -7.7110     3.1460     1.9230 H     1 <1>   0.1500 
 46 H       -9.0820     6.4020    -1.8460 H     1 <1>   0.0800 
 47 H       -9.2450     7.4780    -0.4650 H     1 <1>   0.0800 
 48 H      -10.8790     5.1850    -1.0950 H     1 <1>   0.0800 
 49 H      -11.0080     6.2320     0.3180 H     1 <1>   0.0800 
 50 H      -12.4360     4.5180     1.3980 H     1 <1>   0.0800 
 51 H      -12.4750     2.7830     1.5710 H     1 <1>   0.0800 
 52 H      -12.2930     3.4820    -0.0160 H     1 <1>   0.0800 
@<TRIPOS>BOND
  1   1   2  1   
  2   2   3  ar  
  3   2   4  ar  
  4   3   5  1   
  5   3   6  ar  
  6   4   7  ar  
  7   4  29  1   
  8   5   8  1   
  9   5   9  1   
 10   6  10  ar  
 11   6  30  1   
 12   7  10  ar  
 13   7  31  1   
 14   8  11  1   
 15   8  32  1   
 16   8  33  1   
 17   9  12  1   
 18   9  34  1   
 19   9  35  1   
 20  10  36  1   
 21  11  13  1   
 22  11  37  1   
 23  11  38  1   
 24  12  13  1   
 25  12  39  1   
 26  12  40  1   
 27  13  14  1   
 28  14  15  1   
 29  14  41  1   
 30  14  42  1   
 31  15  16  2   
 32  15  17  1   
 33  17  18  ar  
 34  17  19  ar  
 35  18  20  ar  
 36  18  43  1   
 37  19  21  ar  
 38  19  44  1   
 39  20  22  ar  
 40  20  23  1   
 41  21  22  ar  
 42  21  45  1   
 43  22  24  1   
 44  23  25  1   
 45  23  46  1   
 46  23  47  1   
 47  24  25  1   
 48  24  26  am  
 49  25  48  1   
 50  25  49  1   
 51  26  27  2   
 52  26  28  1   
 53  28  50  1   
 54  28  51  1   
 55  28  52  1   
@<TRIPOS>SUBSTRUCTURE
  1 ****  12 GROUP 4 **** **** 0

# MOE 2024.06 (io_trps.svl 2023.06)
