@<TRIPOS>MOLECULE
Morpholine-4-carboxylic acid [3-(4-chloro-phenyl)-[1,2,4]oxadiazol-5-ylmethyl]-i
46 48 1 0 0 
SMALL
USER_CHARGES


@<TRIPOS>ATOM
  1 CL      -1.8060     2.2540     2.7380 Cl    1 <1>  -0.1770 
  2 C       -3.3630     1.6890     2.1920 C.ar  1 <1>   0.1770 
  3 C       -4.3960     1.5580     3.0990 C.ar  1 <1>  -0.1500 
  4 C       -3.5460     1.3770     0.8600 C.ar  1 <1>  -0.1500 
  5 C       -5.6300     1.1090     2.6610 C.ar  1 <1>  -0.1500 
  6 C       -4.7840     0.9290     0.4330 C.ar  1 <1>  -0.1500 
  7 C       -5.8570     0.7840     1.3190 C.ar  1 <1>   0.0540 
  8 C       -7.1580     0.3150     0.8700 C.2   1 <1>   0.4620 
  9 N       -8.2060     0.1920     1.6060 N.2   1 <1>  -0.4100 
 10 N       -7.3990    -0.0390    -0.3960 N.2   1 <1>  -0.5650 
 11 O       -9.1670    -0.2520     0.8590 O.3   1 <1>  -0.0190 
 12 C       -8.6270    -0.3630    -0.3260 C.2   1 <1>   0.2980 
 13 C       -9.4990    -0.8380    -1.4800 C.3   1 <1>   0.3200 
 14 N      -10.6740     0.0670    -1.6610 N.am  1 <1>  -0.6600 
 15 C      -11.8290    -0.2290    -0.9930 C.2   1 <1>   0.6900 
 16 C      -10.6230     1.1520    -2.6720 C.3   1 <1>   0.2200 
 17 O      -12.1450    -1.3940    -0.8320 O.2   1 <1>  -0.5700 
 18 N      -12.6080     0.7690    -0.4730 N.am  1 <1>  -0.6600 
 19 C      -10.6870     0.5470    -4.0740 C.3   1 <1>  -0.2400 
 20 C       -9.3760     2.0200    -2.4970 C.3   1 <1>  -0.2400 
 21 C      -11.9880     1.8770     0.3110 C.3   1 <1>   0.1400 
 22 C      -14.0130     0.4910    -0.0550 C.3   1 <1>   0.1400 
 23 C      -12.1870     1.6460     1.8190 C.3   1 <1>   0.1200 
 24 C      -14.0950     0.3290     1.4720 C.3   1 <1>   0.1200 
 25 O      -13.5410     1.4440     2.1140 O.3   1 <1>  -0.5600 
 26 H       -4.2320     1.8050     4.1330 H     1 <1>   0.1500 
 27 H       -2.7290     1.4860     0.1690 H     1 <1>   0.1500 
 28 H       -6.4320     1.0080     3.3720 H     1 <1>   0.1500 
 29 H       -4.9210     0.6880    -0.6070 H     1 <1>   0.1500 
 30 H       -9.8280    -1.8410    -1.2720 H     1 <1>   0.0800 
 31 H       -8.9130    -0.8690    -2.3790 H     1 <1>   0.0800 
 32 H      -11.4890     1.7810    -2.5480 H     1 <1>   0.0800 
 33 H       -9.8140    -0.0410    -4.2890 H     1 <1>   0.0800 
 34 H      -10.7520     1.3320    -4.8050 H     1 <1>   0.0800 
 35 H      -11.5630    -0.0700    -4.1660 H     1 <1>   0.0800 
 36 H       -9.3180     2.3980    -1.4930 H     1 <1>   0.0800 
 37 H       -8.4800     1.4700    -2.7210 H     1 <1>   0.0800 
 38 H       -9.4260     2.8590    -3.1670 H     1 <1>   0.0800 
 39 H      -12.4390     2.8110     0.0290 H     1 <1>   0.0800 
 40 H      -10.9340     1.9390     0.1090 H     1 <1>   0.0800 
 41 H      -14.3740    -0.4030    -0.5330 H     1 <1>   0.0800 
 42 H      -14.6430     1.3070    -0.3610 H     1 <1>   0.0800 
 43 H      -11.8530     2.5040     2.3750 H     1 <1>   0.0800 
 44 H      -11.6290     0.7850     2.1460 H     1 <1>   0.0800 
 45 H      -13.5630    -0.5530     1.7850 H     1 <1>   0.0800 
 46 H      -15.1210     0.2450     1.7830 H     1 <1>   0.0800 
@<TRIPOS>BOND
  1   1   2  1   
  2   2   3  ar  
  3   2   4  ar  
  4   3   5  ar  
  5   3  26  1   
  6   4   6  ar  
  7   4  27  1   
  8   5   7  ar  
  9   5  28  1   
 10   6   7  ar  
 11   6  29  1   
 12   7   8  1   
 13   8   9  2   
 14   8  10  1   
 15   9  11  1   
 16  10  12  2   
 17  11  12  1   
 18  12  13  1   
 19  13  14  1   
 20  13  30  1   
 21  13  31  1   
 22  14  15  am  
 23  14  16  1   
 24  15  17  2   
 25  15  18  am  
 26  16  19  1   
 27  16  20  1   
 28  16  32  1   
 29  18  21  1   
 30  18  22  1   
 31  19  33  1   
 32  19  34  1   
 33  19  35  1   
 34  20  36  1   
 35  20  37  1   
 36  20  38  1   
 37  21  23  1   
 38  21  39  1   
 39  21  40  1   
 40  22  24  1   
 41  22  41  1   
 42  22  42  1   
 43  23  25  1   
 44  23  43  1   
 45  23  44  1   
 46  24  25  1   
 47  24  45  1   
 48  24  46  1   
@<TRIPOS>SUBSTRUCTURE
  1 ****  11 GROUP 4 **** **** 0

# MOE 2024.06 (io_trps.svl 2023.06)
