@<TRIPOS>MOLECULE
2-[5-(4-Acetylamino-phenyl)-[1,3,4]oxadiazol-2-ylsulfanyl]-N-bicyclo[2.2.1]hept-
49 52 1 0 0 
SMALL
USER_CHARGES


@<TRIPOS>ATOM
  1 S        0.3220     1.2990     0.5740 S.3   1 <1>  -0.2860 
  2 C        2.0370     1.0390     0.9970 C.2   1 <1>   0.5340 
  3 C       -0.1540     2.7330     1.6600 C.3   1 <1>   0.1310 
  4 O        2.6900     0.1000     0.4120 O.3   1 <1>  -0.2800 
  5 N        2.7160     1.7040     1.8470 N.2   1 <1>  -0.3380 
  6 C       -1.6070     3.1420     1.4670 C.2   1 <1>   0.5690 
  7 C        3.8780     0.1870     0.9430 C.2   1 <1>   0.4250 
  8 N        3.9260     1.1480     1.8150 N.2   1 <1>  -0.3380 
  9 O       -2.0110     4.0990     2.0810 O.2   1 <1>  -0.5700 
 10 N       -2.4090     2.4380     0.6270 N.am  1 <1>  -0.7300 
 11 C        4.9380    -0.7130     0.5480 C.ar  1 <1>   0.0530 
 12 C       -3.8350     2.7270     0.3500 C.3   1 <1>   0.2200 
 13 C        4.7460    -1.7030    -0.4180 C.ar  1 <1>  -0.1500 
 14 C        6.2100    -0.6300     1.1190 C.ar  1 <1>  -0.1500 
 15 C       -4.7940     1.4580     0.7410 C.3   1 <1>  -0.0800 
 16 C       -4.0400     3.0290    -1.2780 C.3   1 <1>  -0.1600 
 17 C        5.7630    -2.5600    -0.7900 C.ar  1 <1>  -0.1500 
 18 C        7.2280    -1.4870     0.7490 C.ar  1 <1>  -0.1500 
 19 C       -5.0370     1.7640    -0.5400 C.3   1 <1>  -0.1600 
 20 C       -6.0150     0.5080     0.2070 C.3   1 <1>  -0.1600 
 21 C       -5.2500     2.0710    -1.8230 C.3   1 <1>  -0.0800 
 22 C        7.0250    -2.4720    -0.2110 C.ar  1 <1>   0.1170 
 23 C       -6.2230     0.8170    -1.4260 C.3   1 <1>  -0.1600 
 24 N        8.0950    -3.3100    -0.5530 N.am  1 <1>  -0.5470 
 25 C        8.1290    -4.5120    -1.2030 C.2   1 <1>   0.5690 
 26 O        7.1550    -5.1000    -1.5980 O.2   1 <1>  -0.5700 
 27 C        9.4830    -5.1370    -1.4230 C.3   1 <1>  -0.1790 
 28 H        0.4950     3.5510     1.4110 H     1 <1>   0.0800 
 29 H        0.0130     2.4340     2.6770 H     1 <1>   0.0800 
 30 H       -2.0170     1.6440     0.1160 H     1 <1>   0.3700 
 31 H       -4.1410     3.5940     0.9180 H     1 <1>   0.0800 
 32 H        3.7840    -1.8070    -0.8900 H     1 <1>   0.1500 
 33 H        6.4010     0.1210     1.8680 H     1 <1>   0.1500 
 34 H       -4.0680     0.7080     1.0220 H     1 <1>   0.0800 
 35 H       -3.1300     2.8240    -1.8220 H     1 <1>   0.0800 
 36 H       -4.2820     4.0690    -1.4260 H     1 <1>   0.0800 
 37 H        5.5680    -3.3020    -1.5430 H     1 <1>   0.1500 
 38 H        8.1910    -1.3900     1.2160 H     1 <1>   0.1500 
 39 H       -4.2150     0.9860    -0.8670 H     1 <1>   0.0800 
 40 H       -5.8480     2.5540    -0.2140 H     1 <1>   0.0800 
 41 H       -6.9230     0.7330     0.7470 H     1 <1>   0.0800 
 42 H       -5.7930    -0.5350     0.3680 H     1 <1>   0.0800 
 43 H       -5.9830     2.8120    -2.1140 H     1 <1>   0.0800 
 44 H       -7.2560     1.0450    -1.6370 H     1 <1>   0.0800 
 45 H       -5.9590    -0.0550    -2.0060 H     1 <1>   0.0800 
 46 H        9.0040    -2.9820    -0.2350 H     1 <1>   0.3700 
 47 H       10.1080    -4.4700    -1.9860 H     1 <1>   0.0800 
 48 H        9.3720    -6.0550    -1.9730 H     1 <1>   0.0800 
 49 H        9.9430    -5.3550    -0.4770 H     1 <1>   0.0800 
@<TRIPOS>BOND
  1   1   2  1   
  2   1   3  1   
  3   2   4  1   
  4   2   5  2   
  5   3   6  1   
  6   3  28  1   
  7   3  29  1   
  8   4   7  1   
  9   5   8  1   
 10   6   9  2   
 11   6  10  am  
 12   7   8  2   
 13   7  11  1   
 14  10  12  1   
 15  10  30  1   
 16  11  13  ar  
 17  11  14  ar  
 18  12  15  1   
 19  12  16  1   
 20  12  31  1   
 21  13  17  ar  
 22  13  32  1   
 23  14  18  ar  
 24  14  33  1   
 25  15  19  1   
 26  15  20  1   
 27  15  34  1   
 28  16  21  1   
 29  16  35  1   
 30  16  36  1   
 31  17  22  ar  
 32  17  37  1   
 33  18  22  ar  
 34  18  38  1   
 35  19  21  1   
 36  19  39  1   
 37  19  40  1   
 38  20  23  1   
 39  20  41  1   
 40  20  42  1   
 41  21  23  1   
 42  21  43  1   
 43  22  24  1   
 44  23  44  1   
 45  23  45  1   
 46  24  25  am  
 47  24  46  1   
 48  25  26  2   
 49  25  27  1   
 50  27  47  1   
 51  27  48  1   
 52  27  49  1   
@<TRIPOS>SUBSTRUCTURE
  1 ****   4 GROUP 4 **** **** 0

# MOE 2024.06 (io_trps.svl 2023.06)
