@<TRIPOS>MOLECULE
2-Azepan-1-yl-N-(5-chloro-2-methoxy-phenyl)-acetamide
42 43 1 0 0 
SMALL
USER_CHARGES


@<TRIPOS>ATOM
  1 CL       0.5560     0.5870    -2.6460 Cl    1 <1>  -0.1770 
  2 C        0.3880     2.0090    -1.6470 C.ar  1 <1>   0.1770 
  3 C       -0.8600     2.5730    -1.4770 C.ar  1 <1>  -0.1500 
  4 C        1.5110     2.5420    -1.0440 C.ar  1 <1>  -0.1500 
  5 C       -1.0060     3.7040    -0.6820 C.ar  1 <1>   0.1170 
  6 C        1.3810     3.6700    -0.2520 C.ar  1 <1>  -0.1500 
  7 N       -2.2380     4.3470    -0.4500 N.am  1 <1>  -0.5470 
  8 C        0.1290     4.2530    -0.0690 C.ar  1 <1>   0.0830 
  9 C       -3.5220     4.0490    -0.8190 C.2   1 <1>   0.5690 
 10 O       -0.0650     5.3680     0.7000 O.3   1 <1>  -0.3630 
 11 O       -3.8270     3.0870    -1.4820 O.2   1 <1>  -0.5700 
 12 C       -4.6710     4.9630    -0.3560 C.3   1 <1>   0.4040 
 13 C        1.0190     6.0060     1.3450 C.3   1 <1>   0.0400 
 14 N       -6.0120     4.2620    -0.3150 N.4   1 <1>  -0.9590 
 15 C       -7.1420     5.2310    -0.3010 C.3   1 <1>   0.3430 
 16 C       -6.0380     3.2350     0.7660 C.3   1 <1>   0.3430 
 17 C       -8.3640     4.6120    -0.9800 C.3   1 <1>  -0.1600 
 18 C       -7.2640     2.3240     0.6750 C.3   1 <1>  -0.1600 
 19 C       -9.2670     3.7750    -0.0600 C.3   1 <1>  -0.1600 
 20 C       -8.5700     3.0210     1.0810 C.3   1 <1>  -0.1600 
 21 H       -1.6950     2.1170    -1.9730 H     1 <1>   0.1500 
 22 H        2.4690     2.0790    -1.1960 H     1 <1>   0.1500 
 23 H        2.2650     4.0710     0.2080 H     1 <1>   0.1500 
 24 H       -2.0790     5.1840     0.1210 H     1 <1>   0.3700 
 25 H       -4.7220     5.7860    -1.0480 H     1 <1>   0.0800 
 26 H       -4.4370     5.3560     0.6170 H     1 <1>   0.0800 
 27 H        0.6400     6.8570     1.8820 H     1 <1>   0.0800 
 28 H        1.7270     6.3320     0.6030 H     1 <1>   0.0800 
 29 H        1.4740     5.3160     2.0340 H     1 <1>   0.0800 
 30 H       -6.0550     3.7260    -1.1990 H     1 <1>   0.4500 
 31 H       -6.8620     6.1100    -0.8580 H     1 <1>   0.0800 
 32 H       -7.3810     5.5320     0.7070 H     1 <1>   0.0800 
 33 H       -6.0190     3.7140     1.7320 H     1 <1>   0.0800 
 34 H       -5.1580     2.6160     0.6850 H     1 <1>   0.0800 
 35 H       -8.0500     4.0200    -1.8220 H     1 <1>   0.0800 
 36 H       -8.9650     5.4120    -1.3780 H     1 <1>   0.0800 
 37 H       -7.1010     1.5160     1.3680 H     1 <1>   0.0800 
 38 H       -7.3430     1.8800    -0.3030 H     1 <1>   0.0800 
 39 H       -9.8010     3.0650    -0.6700 H     1 <1>   0.0800 
 40 H      -10.0110     4.4190     0.3800 H     1 <1>   0.0800 
 41 H       -8.3850     3.6910     1.9040 H     1 <1>   0.0800 
 42 H       -9.2580     2.2750     1.4440 H     1 <1>   0.0800 
@<TRIPOS>BOND
  1   1   2  1   
  2   2   3  ar  
  3   2   4  ar  
  4   3   5  ar  
  5   3  21  1   
  6   4   6  ar  
  7   4  22  1   
  8   5   7  1   
  9   5   8  ar  
 10   6   8  ar  
 11   6  23  1   
 12   7   9  am  
 13   7  24  1   
 14   8  10  1   
 15   9  11  2   
 16   9  12  1   
 17  10  13  1   
 18  12  14  1   
 19  12  25  1   
 20  12  26  1   
 21  13  27  1   
 22  13  28  1   
 23  13  29  1   
 24  14  15  1   
 25  14  16  1   
 26  14  30  1   
 27  15  17  1   
 28  15  31  1   
 29  15  32  1   
 30  16  18  1   
 31  16  33  1   
 32  16  34  1   
 33  17  19  1   
 34  17  35  1   
 35  17  36  1   
 36  18  20  1   
 37  18  37  1   
 38  18  38  1   
 39  19  20  1   
 40  19  39  1   
 41  19  40  1   
 42  20  41  1   
 43  20  42  1   
@<TRIPOS>SUBSTRUCTURE
  1 ****   9 GROUP 4 **** **** 0

# MOE 2024.06 (io_trps.svl 2023.06)
