@<TRIPOS>MOLECULE
2-Cyclohexyl-N-[3-(3,4-dimethoxy-phenyl)-[1,2,4]oxadiazol-5-ylmethyl]-acetamide
51 53 1 0 0 
SMALL
USER_CHARGES


@<TRIPOS>ATOM
  1 O       -0.0170     1.9880     2.6900 O.2   1 <1>  -0.5700 
  2 C        0.2910     2.2450     1.5530 C.2   1 <1>   0.5690 
  3 N        1.5280     1.9730     1.0750 N.am  1 <1>  -0.7300 
  4 C       -0.7260     2.8930     0.6350 C.3   1 <1>  -0.0990 
  5 C        2.6240     1.3820     1.8870 C.3   1 <1>   0.3200 
  6 C       -1.7270     1.8880     0.0340 C.3   1 <1>  -0.0800 
  7 C        3.9360     2.1160     1.6590 C.2   1 <1>   0.2980 
  8 C       -1.0300     0.8410    -0.8570 C.3   1 <1>  -0.1600 
  9 C       -2.8090     2.6370    -0.7640 C.3   1 <1>  -0.1600 
 10 O        4.0710     3.3210     2.1480 O.3   1 <1>  -0.0190 
 11 N        4.9390     1.6720     1.0180 N.2   1 <1>  -0.5650 
 12 C       -2.0410    -0.1240    -1.4910 C.3   1 <1>  -0.1600 
 13 C       -3.8190     1.6690    -1.3940 C.3   1 <1>  -0.1600 
 14 N        5.2650     3.6750     1.7880 N.2   1 <1>  -0.4100 
 15 C        5.7830     2.7040     1.1210 C.2   1 <1>   0.4620 
 16 C       -3.1160     0.6340    -2.2790 C.3   1 <1>  -0.1600 
 17 C        7.1140     2.6950     0.5360 C.ar  1 <1>   0.0540 
 18 C        7.6060     1.5900    -0.1590 C.ar  1 <1>  -0.1500 
 19 C        7.9610     3.7970     0.6460 C.ar  1 <1>  -0.1500 
 20 C        8.8710     1.5670    -0.7180 C.ar  1 <1>   0.0830 
 21 C        9.2250     3.8030     0.0860 C.ar  1 <1>  -0.1500 
 22 O        9.2000     0.4050    -1.3510 O.3   1 <1>  -0.3620 
 23 C        9.7000     2.6950    -0.6110 C.ar  1 <1>   0.0830 
 24 C       10.5210    -0.0870    -1.3220 C.3   1 <1>   0.0400 
 25 O       10.9310     2.6990    -1.1980 O.3   1 <1>  -0.3630 
 26 C       11.7240     3.8630    -1.2770 C.3   1 <1>   0.0400 
 27 H        1.7640     2.1830     0.1040 H     1 <1>   0.3700 
 28 H       -0.2160     3.4190    -0.1500 H     1 <1>   0.0800 
 29 H       -1.2640     3.6210     1.2160 H     1 <1>   0.0800 
 30 H        2.7460     0.3510     1.6090 H     1 <1>   0.0800 
 31 H        2.3760     1.4210     2.9340 H     1 <1>   0.0800 
 32 H       -2.2090     1.3710     0.8490 H     1 <1>   0.0800 
 33 H       -0.3310     0.2670    -0.2740 H     1 <1>   0.0800 
 34 H       -0.4830     1.3390    -1.6390 H     1 <1>   0.0800 
 35 H       -2.3470     3.2170    -1.5450 H     1 <1>   0.0800 
 36 H       -3.3340     3.3170    -0.1150 H     1 <1>   0.0800 
 37 H       -2.5130    -0.7030    -0.7150 H     1 <1>   0.0800 
 38 H       -1.5280    -0.8060    -2.1460 H     1 <1>   0.0800 
 39 H       -4.5310     2.2220    -1.9830 H     1 <1>   0.0800 
 40 H       -4.3610     1.1620    -0.6140 H     1 <1>   0.0800 
 41 H       -3.8400    -0.0640    -2.6640 H     1 <1>   0.0800 
 42 H       -2.6590     1.1320    -3.1180 H     1 <1>   0.0800 
 43 H        6.9900     0.7160    -0.2680 H     1 <1>   0.1500 
 44 H        7.6220     4.6690     1.1780 H     1 <1>   0.1500 
 45 H        9.8240     4.6850     0.2070 H     1 <1>   0.1500 
 46 H       10.4890    -1.1430    -1.5200 H     1 <1>   0.0800 
 47 H       10.9450     0.0940    -0.3500 H     1 <1>   0.0800 
 48 H       11.0930     0.4080    -2.0860 H     1 <1>   0.0800 
 49 H       12.6040     3.6290    -1.8480 H     1 <1>   0.0800 
 50 H       12.0040     4.1640    -0.2830 H     1 <1>   0.0800 
 51 H       11.1630     4.6350    -1.7730 H     1 <1>   0.0800 
@<TRIPOS>BOND
  1   1   2  2   
  2   2   3  am  
  3   2   4  1   
  4   3   5  1   
  5   3  27  1   
  6   4   6  1   
  7   4  28  1   
  8   4  29  1   
  9   5   7  1   
 10   5  30  1   
 11   5  31  1   
 12   6   8  1   
 13   6   9  1   
 14   6  32  1   
 15   7  10  1   
 16   7  11  2   
 17   8  12  1   
 18   8  33  1   
 19   8  34  1   
 20   9  13  1   
 21   9  35  1   
 22   9  36  1   
 23  10  14  1   
 24  11  15  1   
 25  12  16  1   
 26  12  37  1   
 27  12  38  1   
 28  13  16  1   
 29  13  39  1   
 30  13  40  1   
 31  14  15  2   
 32  15  17  1   
 33  16  41  1   
 34  16  42  1   
 35  17  18  ar  
 36  17  19  ar  
 37  18  20  ar  
 38  18  43  1   
 39  19  21  ar  
 40  19  44  1   
 41  20  22  1   
 42  20  23  ar  
 43  21  23  ar  
 44  21  45  1   
 45  22  24  1   
 46  23  25  1   
 47  24  46  1   
 48  24  47  1   
 49  24  48  1   
 50  25  26  1   
 51  26  49  1   
 52  26  50  1   
 53  26  51  1   
@<TRIPOS>SUBSTRUCTURE
  1 ****  11 GROUP 4 **** **** 0

# MOE 2024.06 (io_trps.svl 2023.06)
