@<TRIPOS>MOLECULE
4-(4-Hydroxy-phenyl)-2,7-dimethyl-5-oxo-1,4,5,6,7,8-hexahydro-quinoline-3-carbox
55 58 1 0 0 
SMALL
USER_CHARGES


@<TRIPOS>ATOM
  1 O        0.0580    -0.6180    -1.8110 O.2   1 <1>  -0.5700 
  2 C        0.0810    -1.5800    -1.0790 C.2   1 <1>   0.4950 
  3 C        1.2680    -2.1770    -0.5650 C.2   1 <1>  -0.1240 
  4 C       -1.2530    -2.2210    -0.7360 C.3   1 <1>  -0.0990 
  5 C        1.2760    -3.3190     0.1660 C.2   1 <1>  -0.0380 
  6 C        2.5870    -1.4670    -0.8780 C.3   1 <1>   0.3400 
  7 C       -1.1970    -3.0290     0.5730 C.3   1 <1>  -0.0800 
  8 N        2.4460    -3.9170     0.5660 N.pl3 1 <1>  -0.6000 
  9 C       -0.0160    -4.0170     0.5640 C.3   1 <1>  -0.0220 
 10 C        3.8260    -2.2960    -0.5210 C.2   1 <1>  -0.1240 
 11 C        2.6510    -0.1570    -0.0880 C.ar  1 <1>  -0.1440 
 12 C       -2.5240    -3.7580     0.8250 C.3   1 <1>  -0.2400 
 13 C        3.6860    -3.4590     0.1740 C.2   1 <1>  -0.0380 
 14 C        5.0420    -1.6880    -0.9650 C.2   1 <1>   0.6160 
 15 C        2.6060    -0.1730     1.3010 C.ar  1 <1>  -0.1500 
 16 C        2.7600     1.0600    -0.7490 C.ar  1 <1>  -0.1500 
 17 C        4.8230    -4.3880     0.5730 C.3   1 <1>  -0.1020 
 18 O        5.1410    -1.2510    -2.0960 O.2   1 <1>  -0.5700 
 19 N        6.0910    -1.5850    -0.0920 N.am  1 <1>  -0.5470 
 20 C        2.6710     1.0080     2.0190 C.ar  1 <1>  -0.1500 
 21 C        2.8250     2.2440    -0.0360 C.ar  1 <1>  -0.1500 
 22 C        7.4040    -1.1950    -0.2100 C.ar  1 <1>   0.4270 
 23 C        2.7800     2.2130     1.3480 C.ar  1 <1>   0.0820 
 24 N        8.1190    -1.5060     0.8610 N.ar  1 <1>  -0.6200 
 25 C        7.9380    -0.5430    -1.3210 C.ar  1 <1>  -0.1500 
 26 O        2.8420     3.3530     2.0510 O.3   1 <1>  -0.5330 
 27 C        9.3970    -1.1670     0.8360 C.ar  1 <1>   0.1670 
 28 C        9.2680    -0.1950    -1.3400 C.ar  1 <1>  -0.1500 
 29 C       10.0110    -0.5220    -0.2250 C.ar  1 <1>  -0.1500 
 30 C       10.1980    -1.5310     2.0680 C.3   1 <1>  -0.0970 
 31 H       -1.5330    -2.8600    -1.5540 H     1 <1>   0.0800 
 32 H       -1.9940    -1.4470    -0.6510 H     1 <1>   0.0800 
 33 H        2.6060    -1.2610    -1.9350 H     1 <1>   0.0800 
 34 H       -1.0360    -2.3330     1.3810 H     1 <1>   0.0800 
 35 H        2.3970    -4.7870     1.1080 H     1 <1>   0.4000 
 36 H        0.0900    -4.4390     1.5480 H     1 <1>   0.0800 
 37 H       -0.2040    -4.8180    -0.1290 H     1 <1>   0.0800 
 38 H       -2.7270    -4.4640     0.0380 H     1 <1>   0.0800 
 39 H       -3.3340    -3.0510     0.8680 H     1 <1>   0.0800 
 40 H       -2.4890    -4.2870     1.7610 H     1 <1>   0.0800 
 41 H        2.5200    -1.1080     1.8270 H     1 <1>   0.1500 
 42 H        2.7930     1.0860    -1.8250 H     1 <1>   0.1500 
 43 H        5.0000    -4.3190     1.6310 H     1 <1>   0.0800 
 44 H        5.7330    -4.1590     0.0510 H     1 <1>   0.0800 
 45 H        4.5660    -5.4030     0.3310 H     1 <1>   0.0800 
 46 H        5.8940    -1.9110     0.8480 H     1 <1>   0.3700 
 47 H        2.6380     1.0030     3.0930 H     1 <1>   0.1500 
 48 H        2.9080     3.1760    -0.5610 H     1 <1>   0.1500 
 49 H        7.3180    -0.3050    -2.1630 H     1 <1>   0.1500 
 50 H        2.9170     4.1390     1.4840 H     1 <1>   0.4500 
 51 H        9.7070     0.3070    -2.1840 H     1 <1>   0.1500 
 52 H       11.0550    -0.2730    -0.1860 H     1 <1>   0.1500 
 53 H       10.1670    -2.5950     2.2150 H     1 <1>   0.0800 
 54 H        9.7690    -1.0500     2.9280 H     1 <1>   0.0800 
 55 H       11.2220    -1.2220     1.9720 H     1 <1>   0.0800 
@<TRIPOS>BOND
  1   1   2  2   
  2   2   3  1   
  3   2   4  1   
  4   3   5  2   
  5   3   6  1   
  6   4   7  1   
  7   4  31  1   
  8   4  32  1   
  9   5   8  1   
 10   5   9  1   
 11   6  10  1   
 12   6  11  1   
 13   6  33  1   
 14   7   9  1   
 15   7  12  1   
 16   7  34  1   
 17   8  13  1   
 18   8  35  1   
 19   9  36  1   
 20   9  37  1   
 21  10  13  2   
 22  10  14  1   
 23  11  15  ar  
 24  11  16  ar  
 25  12  38  1   
 26  12  39  1   
 27  12  40  1   
 28  13  17  1   
 29  14  18  2   
 30  14  19  am  
 31  15  20  ar  
 32  15  41  1   
 33  16  21  ar  
 34  16  42  1   
 35  17  43  1   
 36  17  44  1   
 37  17  45  1   
 38  19  22  1   
 39  19  46  1   
 40  20  23  ar  
 41  20  47  1   
 42  21  23  ar  
 43  21  48  1   
 44  22  24  ar  
 45  22  25  ar  
 46  23  26  1   
 47  24  27  ar  
 48  25  28  ar  
 49  25  49  1   
 50  26  50  1   
 51  27  29  ar  
 52  27  30  1   
 53  28  29  ar  
 54  28  51  1   
 55  29  52  1   
 56  30  53  1   
 57  30  54  1   
 58  30  55  1   
@<TRIPOS>SUBSTRUCTURE
  1 ****  10 GROUP 4 **** **** 0

# MOE 2024.06 (io_trps.svl 2023.06)
