@<TRIPOS>MOLECULE
Ethanesulfonic acid [4-(4-benzo[1,3]dioxol-5-ylmethyl-piperazine-1-carbonyl)-phe
56 59 1 0 0 
SMALL
USER_CHARGES


@<TRIPOS>ATOM
  1 S        0.7540     2.0660     0.7550 S.o2  1 <1>   1.3330 
  2 O       -0.0260     2.5020     1.8860 O.2   1 <1>  -0.6500 
  3 O        1.3860     3.0120    -0.1310 O.2   1 <1>  -0.6500 
  4 N        1.9880     1.1070     1.4630 N.am  1 <1>  -0.7570 
  5 C       -0.1880     0.8530    -0.1800 C.3   1 <1>  -0.0550 
  6 C        3.1480     0.5950     0.9080 C.ar  1 <1>   0.1990 
  7 C       -1.4170     1.4270    -0.9080 C.3   1 <1>  -0.2400 
  8 C        4.0540    -0.0640     1.7300 C.ar  1 <1>  -0.1500 
  9 C        3.4580     0.6950    -0.4460 C.ar  1 <1>  -0.1500 
 10 C        5.2220    -0.6010     1.2240 C.ar  1 <1>  -0.1500 
 11 C        4.6250     0.1550    -0.9500 C.ar  1 <1>  -0.1500 
 12 C        5.5450    -0.5030    -0.1320 C.ar  1 <1>   0.0860 
 13 C        6.7740    -1.0540    -0.6720 C.2   1 <1>   0.5440 
 14 O        6.8950    -1.2900    -1.8610 O.2   1 <1>  -0.5700 
 15 N        7.8810    -1.2730     0.1130 N.am  1 <1>  -0.6600 
 16 C        8.7920    -2.3990    -0.2470 C.3   1 <1>   0.1400 
 17 C        8.6070    -0.0830     0.6380 C.3   1 <1>   0.1400 
 18 C        9.8200    -1.9310    -1.2950 C.3   1 <1>   0.3430 
 19 C        9.6470     0.3950    -0.3980 C.3   1 <1>   0.3430 
 20 N       10.5780    -0.7110    -0.8390 N.4   1 <1>  -0.9590 
 21 C       11.5100    -0.2380    -1.8980 C.3   1 <1>   0.4860 
 22 C       12.3680     0.8710    -1.3220 C.ar  1 <1>  -0.1440 
 23 C       13.3560     0.5700    -0.3870 C.ar  1 <1>  -0.1500 
 24 C       12.1620     2.1940    -1.7190 C.ar  1 <1>  -0.1500 
 25 C       14.0970     1.6100     0.1330 C.ar  1 <1>   0.0820 
 26 C       12.9240     3.2260    -1.1840 C.ar  1 <1>  -0.1500 
 27 O       15.0770     1.5520     1.0390 O.3   1 <1>  -0.3620 
 28 C       13.8880     2.9010    -0.2520 C.ar  1 <1>   0.0820 
 29 C       15.5370     2.8900     1.2310 C.3   1 <1>   0.4000 
 30 O       14.7280     3.7150     0.3930 O.3   1 <1>  -0.3620 
 31 H        1.8870     1.1250     2.4740 H     1 <1>   0.4200 
 32 H       -0.5180     0.0810     0.4880 H     1 <1>   0.0800 
 33 H        0.4550     0.3970    -0.9070 H     1 <1>   0.0800 
 34 H       -2.0970     1.8660    -0.1980 H     1 <1>   0.0800 
 35 H       -1.9310     0.6480    -1.4440 H     1 <1>   0.0800 
 36 H       -1.1120     2.1870    -1.6070 H     1 <1>   0.0800 
 37 H        3.8370    -0.1590     2.7790 H     1 <1>   0.1500 
 38 H        2.7920     1.2010    -1.1190 H     1 <1>   0.1500 
 39 H        5.8940    -1.1130     1.8900 H     1 <1>   0.1500 
 40 H        4.8340     0.2440    -2.0030 H     1 <1>   0.1500 
 41 H        8.2130    -3.2110    -0.6550 H     1 <1>   0.0800 
 42 H        9.2910    -2.7610     0.6350 H     1 <1>   0.0800 
 43 H        9.0930    -0.3330     1.5650 H     1 <1>   0.0800 
 44 H        7.9100     0.7150     0.8360 H     1 <1>   0.0800 
 45 H        9.2850    -1.7070    -2.2050 H     1 <1>   0.0800 
 46 H       10.5050    -2.7370    -1.5040 H     1 <1>   0.0800 
 47 H       10.2160     1.2080     0.0250 H     1 <1>   0.0800 
 48 H        9.1150     0.7770    -1.2540 H     1 <1>   0.0800 
 49 H       11.1550    -0.9630    -0.0270 H     1 <1>   0.4500 
 50 H       10.9560     0.1260    -2.7480 H     1 <1>   0.0800 
 51 H       12.1450    -1.0460    -2.2240 H     1 <1>   0.0800 
 52 H       13.5670    -0.4330    -0.0600 H     1 <1>   0.1500 
 53 H       11.4110     2.4400    -2.4520 H     1 <1>   0.1500 
 54 H       12.7830     4.2510    -1.4780 H     1 <1>   0.1500 
 55 H       16.5660     2.9660     0.9270 H     1 <1>   0.0800 
 56 H       15.4030     3.1770     2.2590 H     1 <1>   0.0800 
@<TRIPOS>BOND
  1   1   2  2   
  2   1   3  2   
  3   1   4  am  
  4   1   5  1   
  5   4   6  1   
  6   4  31  1   
  7   5   7  1   
  8   5  32  1   
  9   5  33  1   
 10   6   8  ar  
 11   6   9  ar  
 12   7  34  1   
 13   7  35  1   
 14   7  36  1   
 15   8  10  ar  
 16   8  37  1   
 17   9  11  ar  
 18   9  38  1   
 19  10  12  ar  
 20  10  39  1   
 21  11  12  ar  
 22  11  40  1   
 23  12  13  1   
 24  13  14  2   
 25  13  15  am  
 26  15  16  1   
 27  15  17  1   
 28  16  18  1   
 29  16  41  1   
 30  16  42  1   
 31  17  19  1   
 32  17  43  1   
 33  17  44  1   
 34  18  20  1   
 35  18  45  1   
 36  18  46  1   
 37  19  20  1   
 38  19  47  1   
 39  19  48  1   
 40  20  21  1   
 41  20  49  1   
 42  21  22  1   
 43  21  50  1   
 44  21  51  1   
 45  22  23  ar  
 46  22  24  ar  
 47  23  25  ar  
 48  23  52  1   
 49  24  26  ar  
 50  24  53  1   
 51  25  27  1   
 52  25  28  ar  
 53  26  28  ar  
 54  26  54  1   
 55  27  29  1   
 56  28  30  1   
 57  29  30  1   
 58  29  55  1   
 59  29  56  1   
@<TRIPOS>SUBSTRUCTURE
  1 ****  17 GROUP 4 **** **** 0

# MOE 2024.06 (io_trps.svl 2023.06)
