@<TRIPOS>MOLECULE
2-(5-Amino-[1,3,4]thiadiazol-2-ylsulfanyl)-N-sec-butyl-acetamide
29 29 1 0 0 
SMALL
USER_CHARGES


@<TRIPOS>ATOM
  1 S        0.3990     1.0930     0.7830 S.3   1 <1>  -0.0800 
  2 C        1.8180     0.2300     0.3210 C.2   1 <1>   0.4340 
  3 C        0.4610     1.8030    -0.8000 C.2   1 <1>   0.4620 
  4 S        2.5380    -0.8570     1.5440 S.3   1 <1>  -0.2860 
  5 N        2.2280     0.4670    -0.8600 N.2   1 <1>  -0.3380 
  6 N        1.4480     1.3830    -1.5090 N.2   1 <1>  -0.3380 
  7 N       -0.4950     2.7070    -1.1480 N.pl3 1 <1>  -0.8840 
  8 C        4.1450    -1.3850     0.7760 C.3   1 <1>   0.1310 
  9 C        5.1680    -0.2630     0.8550 C.2   1 <1>   0.5690 
 10 O        6.0720    -0.3580     1.6500 O.2   1 <1>  -0.5700 
 11 N        5.0440     0.8060     0.0270 N.am  1 <1>  -0.7300 
 12 C        5.8900     2.0030     0.0310 C.3   1 <1>   0.2200 
 13 C        5.0150     3.1910     0.4550 C.3   1 <1>  -0.1600 
 14 C        6.4690     2.1590    -1.3730 C.3   1 <1>  -0.2400 
 15 C        5.7990     4.5020     0.6100 C.3   1 <1>  -0.2400 
 16 H       -0.4990     3.1160    -2.0840 H     1 <1>   0.4000 
 17 H       -1.2670     2.9580    -0.5280 H     1 <1>   0.4000 
 18 H        3.9490    -1.6580    -0.2430 H     1 <1>   0.0800 
 19 H        4.4900    -2.2400     1.3270 H     1 <1>   0.0800 
 20 H        4.2390     0.8630    -0.6080 H     1 <1>   0.3700 
 21 H        6.6920     1.8750     0.7400 H     1 <1>   0.0800 
 22 H        4.5650     2.9560     1.4040 H     1 <1>   0.0800 
 23 H        4.2250     3.3340    -0.2630 H     1 <1>   0.0800 
 24 H        5.6870     2.3360    -2.0900 H     1 <1>   0.0800 
 25 H        7.0080     1.2690    -1.6450 H     1 <1>   0.0800 
 26 H        7.1570     2.9830    -1.4030 H     1 <1>   0.0800 
 27 H        6.6160     4.3710     1.2980 H     1 <1>   0.0800 
 28 H        5.1510     5.2700     0.9930 H     1 <1>   0.0800 
 29 H        6.1880     4.8320    -0.3360 H     1 <1>   0.0800 
@<TRIPOS>BOND
  1   1   2  1   
  2   1   3  1   
  3   2   4  1   
  4   2   5  2   
  5   3   6  2   
  6   3   7  1   
  7   4   8  1   
  8   5   6  1   
  9   7  16  1   
 10   7  17  1   
 11   8   9  1   
 12   8  18  1   
 13   8  19  1   
 14   9  10  2   
 15   9  11  am  
 16  11  12  1   
 17  11  20  1   
 18  12  13  1   
 19  12  14  1   
 20  12  21  1   
 21  13  15  1   
 22  13  22  1   
 23  13  23  1   
 24  14  24  1   
 25  14  25  1   
 26  14  26  1   
 27  15  27  1   
 28  15  28  1   
 29  15  29  1   
@<TRIPOS>SUBSTRUCTURE
  1 ****  11 GROUP 4 **** **** 0

# MOE 2024.06 (io_trps.svl 2023.06)
