@<TRIPOS>MOLECULE
5-Ethyl-7-methyl-2-o-tolyl-1,3-diaza-tricyclo[3.3.1.1*3,7*]decan-6-one
46 49 1 0 0 
SMALL
USER_CHARGES


@<TRIPOS>ATOM
  1 O       -0.2100    -0.2290    -0.2720 O.2   1 <1>  -0.5700 
  2 C        0.8100    -0.7930    -0.0160 C.2   1 <1>   0.4480 
  3 C        1.1590    -2.1900    -0.5380 C.3   1 <1>   0.0610 
  4 C        1.8690    -0.1900     0.9080 C.3   1 <1>   0.0610 
  5 C        1.3340    -3.0760     0.6970 C.3   1 <1>   0.3430 
  6 C        2.5380    -2.1040    -1.2070 C.3   1 <1>   0.1100 
  7 C        0.1300    -2.7890    -1.5310 C.3   1 <1>  -0.1600 
  8 C        2.0070    -1.1520     2.0950 C.3   1 <1>   0.3430 
  9 C        3.2050    -0.2020     0.1530 C.3   1 <1>   0.1100 
 10 C        1.5310     1.2350     1.3910 C.3   1 <1>  -0.2400 
 11 N        2.3990    -2.5160     1.6080 N.4   1 <1>  -0.9590 
 12 N        3.5220    -1.5890    -0.2320 N.3   1 <1>  -0.8100 
 13 C       -1.2230    -3.1800    -0.9110 C.3   1 <1>  -0.2400 
 14 C        3.7230    -2.4650     0.9330 C.3   1 <1>   0.8360 
 15 C        4.2880    -3.8610     0.5830 C.ar  1 <1>  -0.1440 
 16 C        5.3900    -4.0050    -0.2700 C.ar  1 <1>  -0.1440 
 17 C        3.7440    -5.0220     1.1410 C.ar  1 <1>  -0.1500 
 18 C        5.8680    -5.2690    -0.5820 C.ar  1 <1>  -0.1500 
 19 C        6.1420    -2.8310    -0.8920 C.3   1 <1>  -0.0970 
 20 C        4.2340    -6.2750     0.8270 C.ar  1 <1>  -0.1500 
 21 C        5.2940    -6.4010    -0.0430 C.ar  1 <1>  -0.1500 
 22 H        1.6030    -4.0680     0.3740 H     1 <1>   0.0800 
 23 H        0.3970    -3.1380     1.2250 H     1 <1>   0.0800 
 24 H        2.8510    -3.0740    -1.5610 H     1 <1>   0.0800 
 25 H        2.4960    -1.4460    -2.0610 H     1 <1>   0.0800 
 26 H        0.5460    -3.6670    -1.9960 H     1 <1>   0.0800 
 27 H       -0.0500    -2.0720    -2.3160 H     1 <1>   0.0800 
 28 H        1.0670    -1.2030     2.6210 H     1 <1>   0.0800 
 29 H        2.7540    -0.7750     2.7750 H     1 <1>   0.0800 
 30 H        3.9950     0.1950     0.7700 H     1 <1>   0.0800 
 31 H        3.1390     0.4140    -0.7300 H     1 <1>   0.0800 
 32 H        0.5960     1.2420     1.9240 H     1 <1>   0.0800 
 33 H        1.4310     1.8980     0.5480 H     1 <1>   0.0800 
 34 H        2.2990     1.6220     2.0380 H     1 <1>   0.0800 
 35 H        2.5310    -3.1430     2.4060 H     1 <1>   0.4500 
 36 H       -1.1220    -3.9830    -0.2040 H     1 <1>   0.0800 
 37 H       -1.8880    -3.5130    -1.6900 H     1 <1>   0.0800 
 38 H       -1.6890    -2.3390    -0.4270 H     1 <1>   0.0800 
 39 H        4.4380    -1.9930     1.5880 H     1 <1>   0.0800 
 40 H        2.9300    -5.0020     1.8400 H     1 <1>   0.1500 
 41 H        6.7050    -5.3850    -1.2510 H     1 <1>   0.1500 
 42 H        5.6150    -2.4690    -1.7570 H     1 <1>   0.0800 
 43 H        7.1280    -3.1280    -1.2050 H     1 <1>   0.0800 
 44 H        6.2580    -2.0270    -0.1880 H     1 <1>   0.0800 
 45 H        3.7960    -7.1590     1.2610 H     1 <1>   0.1500 
 46 H        5.6790    -7.3750    -0.2960 H     1 <1>   0.1500 
@<TRIPOS>BOND
  1   1   2  2   
  2   2   3  1   
  3   2   4  1   
  4   3   5  1   
  5   3   6  1   
  6   3   7  1   
  7   4   8  1   
  8   4   9  1   
  9   4  10  1   
 10   5  11  1   
 11   5  22  1   
 12   5  23  1   
 13   6  12  1   
 14   6  24  1   
 15   6  25  1   
 16   7  13  1   
 17   7  26  1   
 18   7  27  1   
 19   8  11  1   
 20   8  28  1   
 21   8  29  1   
 22   9  12  1   
 23   9  30  1   
 24   9  31  1   
 25  10  32  1   
 26  10  33  1   
 27  10  34  1   
 28  11  14  1   
 29  11  35  1   
 30  12  14  1   
 31  13  36  1   
 32  13  37  1   
 33  13  38  1   
 34  14  15  1   
 35  14  39  1   
 36  15  16  ar  
 37  15  17  ar  
 38  16  18  ar  
 39  16  19  1   
 40  17  20  ar  
 41  17  40  1   
 42  18  21  ar  
 43  18  41  1   
 44  19  42  1   
 45  19  43  1   
 46  19  44  1   
 47  20  21  ar  
 48  20  45  1   
 49  21  46  1   
@<TRIPOS>SUBSTRUCTURE
  1 ****  14 GROUP 4 **** **** 0

# MOE 2024.06 (io_trps.svl 2023.06)
