@<TRIPOS>MOLECULE
1-(4-Ethoxy-phenyl)-5-oxo-pyrrolidine-3-carboxylic acid cycloheptylamide
53 55 1 0 0 
SMALL
USER_CHARGES


@<TRIPOS>ATOM
  1 O        1.3140    -0.3350    -1.8150 O.2   1 <1>  -0.5700 
  2 C        2.3560    -0.6720    -1.3120 C.2   1 <1>   0.5690 
  3 N        2.6170    -1.8390    -0.6560 N.am  1 <1>  -0.4770 
  4 C        3.5650     0.2190    -1.3510 C.3   1 <1>  -0.0990 
  5 C        1.7090    -2.8610    -0.3120 C.ar  1 <1>   0.1170 
  6 C        4.0090    -1.8520    -0.1580 C.3   1 <1>   0.1400 
  7 C        4.7060    -0.7200    -0.9270 C.3   1 <1>  -0.0190 
  8 C        2.0830    -4.2010    -0.3670 C.ar  1 <1>  -0.1500 
  9 C        0.4160    -2.5570     0.1000 C.ar  1 <1>  -0.1500 
 10 C        5.8170    -0.0500    -0.1340 C.2   1 <1>   0.5690 
 11 C        1.2020    -5.2060    -0.0090 C.ar  1 <1>  -0.1500 
 12 C       -0.4700    -3.5570     0.4580 C.ar  1 <1>  -0.1500 
 13 O        6.3040    -0.6330     0.8040 O.2   1 <1>  -0.5700 
 14 N        6.2430     1.1810    -0.5170 N.am  1 <1>  -0.7300 
 15 C       -0.0860    -4.8870     0.4100 C.ar  1 <1>   0.0830 
 16 C        7.2900     1.9670     0.1570 C.3   1 <1>   0.2200 
 17 O       -1.0150    -5.8060     0.7810 O.3   1 <1>  -0.3630 
 18 C        6.6460     3.2610     0.6720 C.3   1 <1>  -0.1600 
 19 C        8.4350     2.1670    -0.8430 C.3   1 <1>  -0.1600 
 20 C       -0.7330    -7.1850     0.7280 C.3   1 <1>   0.1200 
 21 C        7.5470     4.0080     1.6670 C.3   1 <1>  -0.1600 
 22 C        9.5900     3.0500    -0.3420 C.3   1 <1>  -0.1600 
 23 C       -1.9770    -7.9390     1.1880 C.3   1 <1>  -0.2400 
 24 C        8.5480     4.9840     1.0290 C.3   1 <1>  -0.1600 
 25 C        9.2100     4.5360    -0.2840 C.3   1 <1>  -0.1600 
 26 H        3.4210     1.0140    -0.6410 H     1 <1>   0.0800 
 27 H        3.7140     0.6190    -2.3360 H     1 <1>   0.0800 
 28 H        4.4920    -2.7940    -0.3430 H     1 <1>   0.0800 
 29 H        3.9970    -1.6550     0.9010 H     1 <1>   0.0800 
 30 H        5.1460    -1.1500    -1.8080 H     1 <1>   0.0800 
 31 H        3.0690    -4.4660    -0.6980 H     1 <1>   0.1500 
 32 H        0.0990    -1.5310     0.1410 H     1 <1>   0.1500 
 33 H        1.5340    -6.2250    -0.0650 H     1 <1>   0.1500 
 34 H       -1.4670    -3.3110     0.7760 H     1 <1>   0.1500 
 35 H        5.8260     1.6410    -1.3250 H     1 <1>   0.3700 
 36 H        7.6620     1.4070     1.0000 H     1 <1>   0.0800 
 37 H        5.7480     2.9890     1.2000 H     1 <1>   0.0800 
 38 H        6.3700     3.9060    -0.1430 H     1 <1>   0.0800 
 39 H        8.0490     2.5830    -1.7570 H     1 <1>   0.0800 
 40 H        8.8380     1.1960    -1.0710 H     1 <1>   0.0800 
 41 H        0.0980    -7.3880     1.3820 H     1 <1>   0.0800 
 42 H       -0.4850    -7.4430    -0.2870 H     1 <1>   0.0800 
 43 H        8.0810     3.2930     2.2700 H     1 <1>   0.0800 
 44 H        6.9240     4.5720     2.3400 H     1 <1>   0.0800 
 45 H       10.4030     2.9450    -1.0400 H     1 <1>   0.0800 
 46 H        9.9470     2.7080     0.6150 H     1 <1>   0.0800 
 47 H       -2.2250    -7.6600     2.1970 H     1 <1>   0.0800 
 48 H       -1.7930    -8.9970     1.1590 H     1 <1>   0.0800 
 49 H       -2.8040    -7.7140     0.5390 H     1 <1>   0.0800 
 50 H        9.3190     5.1840     1.7530 H     1 <1>   0.0800 
 51 H        8.0470     5.9190     0.8430 H     1 <1>   0.0800 
 52 H        8.5640     4.7750    -1.1110 H     1 <1>   0.0800 
 53 H       10.1030     5.1230    -0.4140 H     1 <1>   0.0800 
@<TRIPOS>BOND
  1   1   2  2   
  2   2   3  am  
  3   2   4  1   
  4   3   5  1   
  5   3   6  1   
  6   4   7  1   
  7   4  26  1   
  8   4  27  1   
  9   5   8  ar  
 10   5   9  ar  
 11   6   7  1   
 12   6  28  1   
 13   6  29  1   
 14   7  10  1   
 15   7  30  1   
 16   8  11  ar  
 17   8  31  1   
 18   9  12  ar  
 19   9  32  1   
 20  10  13  2   
 21  10  14  am  
 22  11  15  ar  
 23  11  33  1   
 24  12  15  ar  
 25  12  34  1   
 26  14  16  1   
 27  14  35  1   
 28  15  17  1   
 29  16  18  1   
 30  16  19  1   
 31  16  36  1   
 32  17  20  1   
 33  18  21  1   
 34  18  37  1   
 35  18  38  1   
 36  19  22  1   
 37  19  39  1   
 38  19  40  1   
 39  20  23  1   
 40  20  41  1   
 41  20  42  1   
 42  21  24  1   
 43  21  43  1   
 44  21  44  1   
 45  22  25  1   
 46  22  45  1   
 47  22  46  1   
 48  23  47  1   
 49  23  48  1   
 50  23  49  1   
 51  24  25  1   
 52  24  50  1   
 53  24  51  1   
 54  25  52  1   
 55  25  53  1   
@<TRIPOS>SUBSTRUCTURE
  1 ****   6 GROUP 4 **** **** 0

# MOE 2024.06 (io_trps.svl 2023.06)
