@<TRIPOS>MOLECULE
5-Ethyl-2-(1H-indol-3-yl)-7-methyl-1,3-diaza-tricyclo[3.3.1.1*3,7*]decan-6-one
47 51 1 0 0 
SMALL
USER_CHARGES


@<TRIPOS>ATOM
  1 O        1.4550    -0.0500    -0.2130 O.2   1 <1>  -0.5700 
  2 C        1.7000    -1.2180    -0.2540 C.2   1 <1>   0.4480 
  3 C        1.0600    -2.1740    -1.2640 C.3   1 <1>   0.0610 
  4 C        2.7790    -1.8620     0.6190 C.3   1 <1>   0.0610 
  5 C        2.2140    -2.6180    -2.1760 C.3   1 <1>   0.3430 
  6 C        0.5790    -3.4250    -0.5080 C.3   1 <1>   0.1100 
  7 C       -0.0710    -1.5470    -2.1200 C.3   1 <1>  -0.1600 
  8 C        3.8690    -2.3200    -0.3530 C.3   1 <1>   0.3430 
  9 C        2.2020    -3.1260     1.2670 C.3   1 <1>   0.1100 
 10 C        3.3560    -0.9160     1.6910 C.3   1 <1>  -0.2400 
 11 N        3.2920    -3.2750    -1.3670 N.4   1 <1>  -0.9590 
 12 N        1.7160    -4.0320     0.2070 N.3   1 <1>  -0.8100 
 13 C       -1.3420    -1.1790    -1.3370 C.3   1 <1>  -0.2400 
 14 C        2.7670    -4.4920    -0.7100 C.3   1 <1>   0.8740 
 15 C        3.8990    -5.2540    -0.0250 C.2   1 <1>  -0.1810 
 16 C        3.6780    -6.2530     0.9560 C.ar  1 <1>   0.0000 
 17 C        5.2460    -5.1740    -0.2170 C.2   1 <1>  -0.3020 
 18 C        4.9320    -6.7290     1.3250 C.ar  1 <1>  -0.1520 
 19 C        2.5390    -6.7990     1.5630 C.ar  1 <1>  -0.1500 
 20 N        5.8830    -6.0630     0.6030 N.pl3 1 <1>   0.0330 
 21 C        5.0740    -7.7320     2.2860 C.ar  1 <1>  -0.1500 
 22 C        2.6780    -7.7870     2.5100 C.ar  1 <1>  -0.1500 
 23 C        3.9450    -8.2540     2.8730 C.ar  1 <1>  -0.1500 
 24 H        1.8390    -3.3050    -2.9170 H     1 <1>   0.0800 
 25 H        2.6120    -1.7560    -2.6880 H     1 <1>   0.0800 
 26 H        0.1530    -4.1420    -1.1920 H     1 <1>   0.0800 
 27 H       -0.1860    -3.1620     0.2050 H     1 <1>   0.0800 
 28 H       -0.3520    -2.2270    -2.9060 H     1 <1>   0.0800 
 29 H        0.3010    -0.6510    -2.5900 H     1 <1>   0.0800 
 30 H        4.6560    -2.8000     0.2050 H     1 <1>   0.0800 
 31 H        4.2850    -1.4600    -0.8520 H     1 <1>   0.0800 
 32 H        1.3870    -2.8680     1.9260 H     1 <1>   0.0800 
 33 H        2.9510    -3.6240     1.8620 H     1 <1>   0.0800 
 34 H        4.1160    -1.4070     2.2740 H     1 <1>   0.0800 
 35 H        2.5740    -0.5910     2.3580 H     1 <1>   0.0800 
 36 H        3.7830    -0.0390     1.2350 H     1 <1>   0.0800 
 37 H        4.0450    -3.6180    -1.9700 H     1 <1>   0.4500 
 38 H       -1.8340    -2.0520    -0.9450 H     1 <1>   0.0800 
 39 H       -2.0360    -0.6780    -1.9900 H     1 <1>   0.0800 
 40 H       -1.1180    -0.5110    -0.5230 H     1 <1>   0.0800 
 41 H        2.3210    -5.1470    -1.4430 H     1 <1>   0.0800 
 42 H        5.8180    -4.5550    -0.8860 H     1 <1>   0.1500 
 43 H        1.5620    -6.4450     1.2910 H     1 <1>   0.1500 
 44 H        6.8920    -6.2380     0.6700 H     1 <1>   0.2700 
 45 H        6.0520    -8.0890     2.5590 H     1 <1>   0.1500 
 46 H        1.8100    -8.2130     2.9830 H     1 <1>   0.1500 
 47 H        4.0260    -9.0290     3.6160 H     1 <1>   0.1500 
@<TRIPOS>BOND
  1   1   2  2   
  2   2   3  1   
  3   2   4  1   
  4   3   5  1   
  5   3   6  1   
  6   3   7  1   
  7   4   8  1   
  8   4   9  1   
  9   4  10  1   
 10   5  11  1   
 11   5  24  1   
 12   5  25  1   
 13   6  12  1   
 14   6  26  1   
 15   6  27  1   
 16   7  13  1   
 17   7  28  1   
 18   7  29  1   
 19   8  11  1   
 20   8  30  1   
 21   8  31  1   
 22   9  12  1   
 23   9  32  1   
 24   9  33  1   
 25  10  34  1   
 26  10  35  1   
 27  10  36  1   
 28  11  14  1   
 29  11  37  1   
 30  12  14  1   
 31  13  38  1   
 32  13  39  1   
 33  13  40  1   
 34  14  15  1   
 35  14  41  1   
 36  15  16  1   
 37  15  17  2   
 38  16  18  ar  
 39  16  19  ar  
 40  17  20  1   
 41  17  42  1   
 42  18  20  1   
 43  18  21  ar  
 44  19  22  ar  
 45  19  43  1   
 46  20  44  1   
 47  21  23  ar  
 48  21  45  1   
 49  22  23  ar  
 50  22  46  1   
 51  23  47  1   
@<TRIPOS>SUBSTRUCTURE
  1 ****  12 GROUP 4 **** **** 0

# MOE 2024.06 (io_trps.svl 2023.06)
