@<TRIPOS>MOLECULE
8-Benzylamino-7-[3-(3,4-dimethyl-phenoxy)-2-hydroxy-propyl]-3-methyl-3,7-dihydro
61 64 1 0 0 
SMALL
USER_CHARGES


@<TRIPOS>ATOM
  1 O        1.4520     2.5830    -1.3550 O.2   1 <1>  -0.5740 
  2 C        2.6580     2.5110    -1.3240 C.2   1 <1>   0.6870 
  3 N        3.3290     1.2980    -1.2880 N.am  1 <1>  -0.4410 
  4 N        3.3790     3.6720    -1.3250 N.am  1 <1>  -0.4940 
  5 C        4.7130     1.3320    -1.2520 C.2   1 <1>   0.4210 
  6 C        2.5970    -0.0020    -1.2680 C.3   1 <1>   0.0540 
  7 C        4.7440     3.7200    -1.2850 C.2   1 <1>   0.7000 
  8 N        5.5670     0.2820    -1.1920 N.pl3 1 <1>  -0.7030 
  9 C        5.4440     2.4680    -1.2580 C.2   1 <1>   0.2720 
 10 O        5.2990     4.8040    -1.2650 O.2   1 <1>  -0.5740 
 11 C        6.8130     0.7410    -1.1480 C.cat 1 <1>   1.0690 
 12 N        6.7980     2.0720    -1.2090 N.pl3 1 <1>  -0.7670 
 13 N        7.9260     0.0060    -1.0470 N.pl3 1 <1>  -0.7170 
 14 C        7.9210     3.0520    -1.0930 C.3   1 <1>   0.3490 
 15 C        8.1190    -1.4720    -0.9480 C.3   1 <1>   0.3060 
 16 C        8.1480     3.5080     0.3680 C.3   1 <1>   0.1940 
 17 C        6.7930    -2.2090    -0.9590 C.ar  1 <1>  -0.1500 
 18 O        6.9560     3.9390     0.9500 O.3   1 <1>  -0.6830 
 19 C        9.1930     4.6210     0.4590 C.3   1 <1>   0.1140 
 20 C        6.2250    -2.6070    -2.1610 C.ar  1 <1>  -0.1560 
 21 C        6.1110    -2.4360     0.2280 C.ar  1 <1>  -0.1560 
 22 O       10.3390     4.1930    -0.2460 O.3   1 <1>  -0.3670 
 23 C        4.9760    -3.2010    -2.1770 C.ar  1 <1>  -0.1560 
 24 C        4.8620    -3.0300     0.2100 C.ar  1 <1>  -0.1560 
 25 C       11.4280     4.9930    -0.3640 C.ar  1 <1>   0.0760 
 26 C        4.2930    -3.4080    -0.9920 C.ar  1 <1>  -0.1560 
 27 C       11.5340     6.2510     0.2220 C.ar  1 <1>  -0.1560 
 28 C       12.4810     4.5080    -1.1190 C.ar  1 <1>  -0.1560 
 29 C       12.6790     7.0150     0.0530 C.ar  1 <1>  -0.1500 
 30 C       13.6240     5.2660    -1.2900 C.ar  1 <1>  -0.1560 
 31 C       13.7320     6.5200    -0.7090 C.ar  1 <1>  -0.1500 
 32 C       12.7570     8.3860     0.7110 C.3   1 <1>  -0.1030 
 33 C       15.0070     7.3230    -0.9220 C.3   1 <1>  -0.1030 
 34 H        2.8550     4.5450    -1.3410 H     1 <1>   0.3650 
 35 H        1.5360     0.1530    -1.3720 H     1 <1>   0.0740 
 36 H        2.7780    -0.5090    -0.3360 H     1 <1>   0.0740 
 37 H        2.9300    -0.6240    -2.0810 H     1 <1>   0.0740 
 38 H        5.3430    -0.7190    -1.1440 H     1 <1>   0.4460 
 39 H        8.8050     0.5170    -1.0240 H     1 <1>   0.4460 
 40 H        7.7160     3.9140    -1.7070 H     1 <1>   0.0740 
 41 H        8.8260     2.6100    -1.4730 H     1 <1>   0.0740 
 42 H        8.6490    -1.7020    -0.0380 H     1 <1>   0.0740 
 43 H        8.7240    -1.8090    -1.7740 H     1 <1>   0.0740 
 44 H        8.4930     2.6730     0.9520 H     1 <1>   0.0740 
 45 H        6.6110     4.7440     0.5020 H     1 <1>   0.3950 
 46 H        9.4710     4.7980     1.4840 H     1 <1>   0.0740 
 47 H        8.8360     5.5260    -0.0020 H     1 <1>   0.0740 
 48 H        6.7440    -2.4570    -3.0940 H     1 <1>   0.1440 
 49 H        6.5400    -2.1510     1.1750 H     1 <1>   0.1440 
 50 H        4.5370    -3.5130    -3.1100 H     1 <1>   0.1440 
 51 H        4.3350    -3.2090     1.1320 H     1 <1>   0.1440 
 52 H        3.3230    -3.8790    -1.0050 H     1 <1>   0.1440 
 53 H       10.7350     6.6500     0.8160 H     1 <1>   0.1440 
 54 H       12.4090     3.5380    -1.5730 H     1 <1>   0.1440 
 55 H       14.4320     4.8720    -1.8810 H     1 <1>   0.1440 
 56 H       11.8640     8.6020     1.2680 H     1 <1>   0.0740 
 57 H       12.8780     9.1470    -0.0390 H     1 <1>   0.0740 
 58 H       13.5920     8.4230     1.3860 H     1 <1>   0.0740 
 59 H       15.4800     7.5200     0.0230 H     1 <1>   0.0740 
 60 H       14.7790     8.2570    -1.4020 H     1 <1>   0.0740 
 61 H       15.7030     6.7870    -1.5420 H     1 <1>   0.0740 
@<TRIPOS>BOND
  1   1   2  2   
  2   2   3  am  
  3   2   4  am  
  4   3   5  1   
  5   3   6  1   
  6   4   7  am  
  7   4  34  1   
  8   5   8  1   
  9   5   9  2   
 10   6  35  1   
 11   6  36  1   
 12   6  37  1   
 13   7   9  1   
 14   7  10  2   
 15   8  11  ar  
 16   8  38  1   
 17   9  12  1   
 18  11  12  ar  
 19  11  13  ar  
 20  12  14  1   
 21  13  15  1   
 22  13  39  1   
 23  14  16  1   
 24  14  40  1   
 25  14  41  1   
 26  15  17  1   
 27  15  42  1   
 28  15  43  1   
 29  16  18  1   
 30  16  19  1   
 31  16  44  1   
 32  17  20  ar  
 33  17  21  ar  
 34  18  45  1   
 35  19  22  1   
 36  19  46  1   
 37  19  47  1   
 38  20  23  ar  
 39  20  48  1   
 40  21  24  ar  
 41  21  49  1   
 42  22  25  1   
 43  23  26  ar  
 44  23  50  1   
 45  24  26  ar  
 46  24  51  1   
 47  25  27  ar  
 48  25  28  ar  
 49  26  52  1   
 50  27  29  ar  
 51  27  53  1   
 52  28  30  ar  
 53  28  54  1   
 54  29  31  ar  
 55  29  32  1   
 56  30  31  ar  
 57  30  55  1   
 58  31  33  1   
 59  32  56  1   
 60  32  57  1   
 61  32  58  1   
 62  33  59  1   
 63  33  60  1   
 64  33  61  1   
@<TRIPOS>SUBSTRUCTURE
  1 ****  12 GROUP 4 **** **** 0

# MOE 2024.06 (io_trps.svl 2023.06)
