@<TRIPOS>MOLECULE
1-(4-Acetylamino-benzenesulfonyl)-pyrrolidine-2-carboxylic acid p-tolylamide
51 53 1 0 0 
SMALL
USER_CHARGES


@<TRIPOS>ATOM
  1 S        0.0320     0.9960     1.6140 S.o2  1 <1>   1.4470 
  2 O       -1.1350     1.1770     2.4460 O.2   1 <1>  -0.6500 
  3 O        1.3050     1.5030     2.0810 O.2   1 <1>  -0.6500 
  4 N       -0.2890     1.8300     0.1760 N.am  1 <1>  -0.8490 
  5 C        0.1760    -0.7350     1.0920 C.ar  1 <1>  -0.0090 
  6 C        0.3850     1.4450    -1.0810 C.3   1 <1>   0.3370 
  7 C       -0.3310     3.2800     0.2830 C.3   1 <1>   0.1960 
  8 C       -0.9530    -1.5100     0.8590 C.ar  1 <1>  -0.1500 
  9 C        1.4160    -1.3230     0.8670 C.ar  1 <1>  -0.1500 
 10 C        1.9280     1.2980    -1.1220 C.2   1 <1>   0.5690 
 11 C       -0.0680     2.5560    -2.0260 C.3   1 <1>  -0.1600 
 12 C       -0.1780     3.8010    -1.1450 C.3   1 <1>  -0.1600 
 13 C       -0.8520    -2.8160     0.4160 C.ar  1 <1>  -0.1500 
 14 C        1.5220    -2.6280     0.4220 C.ar  1 <1>  -0.1500 
 15 O        2.3890     0.5820    -1.9800 O.2   1 <1>  -0.5700 
 16 N        2.7200     1.9530    -0.2170 N.am  1 <1>  -0.5470 
 17 C        0.3900    -3.3990     0.1880 C.ar  1 <1>   0.1170 
 18 C        4.1140     2.0220    -0.1070 C.ar  1 <1>   0.1170 
 19 N        0.5580    -4.7110    -0.2780 N.am  1 <1>  -0.5470 
 20 C        4.6730     2.2040     1.1510 C.ar  1 <1>  -0.1500 
 21 C        4.9640     1.9320    -1.2030 C.ar  1 <1>  -0.1500 
 22 C       -0.2990    -5.7750    -0.3090 C.2   1 <1>   0.5690 
 23 C        6.0440     2.2910     1.3130 C.ar  1 <1>  -0.1500 
 24 C        6.3360     2.0180    -1.0440 C.ar  1 <1>  -0.1500 
 25 O       -1.4230    -5.7580     0.1210 O.2   1 <1>  -0.5700 
 26 C        0.2170    -7.0550    -0.9180 C.3   1 <1>  -0.1790 
 27 C        6.8850     2.1970     0.2150 C.ar  1 <1>  -0.1430 
 28 C        8.3900     2.2920     0.3880 C.3   1 <1>  -0.0970 
 29 H       -0.0250     0.5090    -1.4220 H     1 <1>   0.0800 
 30 H        0.4750     3.6450     0.8980 H     1 <1>   0.0800 
 31 H       -1.2700     3.5850     0.7160 H     1 <1>   0.0800 
 32 H       -1.9290    -1.0830     1.0260 H     1 <1>   0.1500 
 33 H        2.3160    -0.7540     1.0370 H     1 <1>   0.1500 
 34 H       -1.0380     2.3000    -2.4150 H     1 <1>   0.0800 
 35 H        0.6080     2.6930    -2.8530 H     1 <1>   0.0800 
 36 H        0.7190     4.3910    -1.2140 H     1 <1>   0.0800 
 37 H       -1.0170     4.4120    -1.4290 H     1 <1>   0.0800 
 38 H       -1.7520    -3.3790     0.2440 H     1 <1>   0.1500 
 39 H        2.4980    -3.0460     0.2550 H     1 <1>   0.1500 
 40 H        2.2250     2.2620     0.6280 H     1 <1>   0.3700 
 41 H        1.4890    -4.9110    -0.6350 H     1 <1>   0.3700 
 42 H        4.0330     2.2750     2.0120 H     1 <1>   0.1500 
 43 H        4.5550     1.7960    -2.1880 H     1 <1>   0.1500 
 44 H        6.4550     2.4320     2.2970 H     1 <1>   0.1500 
 45 H        6.9740     1.9460    -1.9070 H     1 <1>   0.1500 
 46 H        0.5310    -6.8800    -1.9300 H     1 <1>   0.0800 
 47 H       -0.5650    -7.7930    -0.9220 H     1 <1>   0.0800 
 48 H        1.0410    -7.4280    -0.3400 H     1 <1>   0.0800 
 49 H        8.7050     3.3140     0.2750 H     1 <1>   0.0800 
 50 H        8.8910     1.6900    -0.3490 H     1 <1>   0.0800 
 51 H        8.6810     1.9450     1.3630 H     1 <1>   0.0800 
@<TRIPOS>BOND
  1   1   2  2   
  2   1   3  2   
  3   1   4  am  
  4   1   5  1   
  5   4   6  1   
  6   4   7  1   
  7   5   8  ar  
  8   5   9  ar  
  9   6  10  1   
 10   6  11  1   
 11   6  29  1   
 12   7  12  1   
 13   7  30  1   
 14   7  31  1   
 15   8  13  ar  
 16   8  32  1   
 17   9  14  ar  
 18   9  33  1   
 19  10  15  2   
 20  10  16  am  
 21  11  12  1   
 22  11  34  1   
 23  11  35  1   
 24  12  36  1   
 25  12  37  1   
 26  13  17  ar  
 27  13  38  1   
 28  14  17  ar  
 29  14  39  1   
 30  16  18  1   
 31  16  40  1   
 32  17  19  1   
 33  18  20  ar  
 34  18  21  ar  
 35  19  22  am  
 36  19  41  1   
 37  20  23  ar  
 38  20  42  1   
 39  21  24  ar  
 40  21  43  1   
 41  22  25  2   
 42  22  26  1   
 43  23  27  ar  
 44  23  44  1   
 45  24  27  ar  
 46  24  45  1   
 47  26  46  1   
 48  26  47  1   
 49  26  48  1   
 50  27  28  1   
 51  28  49  1   
 52  28  50  1   
 53  28  51  1   
@<TRIPOS>SUBSTRUCTURE
  1 ****   9 GROUP 4 **** **** 0

# MOE 2024.06 (io_trps.svl 2023.06)
