@<TRIPOS>MOLECULE
7-[3-(3,4-Dimethyl-phenoxy)-2-hydroxy-propyl]-1,3-dimethyl-8-pyrrolidin-1-yl-3,7
61 64 1 0 0 
SMALL
USER_CHARGES


@<TRIPOS>ATOM
  1 O        0.9590     2.3290    -0.1120 O.2   1 <1>  -0.5740 
  2 C        2.1730     2.3530    -0.1300 C.2   1 <1>   0.6870 
  3 N        2.8430     3.5650    -0.2570 N.am  1 <1>  -0.4250 
  4 N        2.8890     1.1680    -0.0360 N.am  1 <1>  -0.4400 
  5 C        4.2270     3.6130    -0.3590 C.2   1 <1>   0.7000 
  6 C        2.0420     4.8290    -0.3130 C.3   1 <1>   0.0540 
  7 C        4.2640     1.2300    -0.1480 C.2   1 <1>   0.4220 
  8 C        2.1840    -0.1360     0.1480 C.3   1 <1>   0.0540 
  9 O        4.8040     4.6860    -0.4680 O.2   1 <1>  -0.5740 
 10 C        4.9530     2.3750    -0.3230 C.2   1 <1>   0.2720 
 11 N        5.1470     0.1990    -0.0990 N.pl3 1 <1>  -0.7030 
 12 N        6.3160     2.0140    -0.4000 N.pl3 1 <1>  -0.7670 
 13 C        6.3840     0.6830    -0.2300 C.cat 1 <1>   1.0690 
 14 C        7.3920     3.0520    -0.4460 C.3   1 <1>   0.3490 
 15 N        7.4740    -0.1170    -0.1740 N.pl3 1 <1>  -0.5950 
 16 C        7.7770     3.5390     0.9700 C.3   1 <1>   0.1940 
 17 C        8.8890     0.2730    -0.4210 C.3   1 <1>   0.1620 
 18 C        7.4160    -1.5610     0.1840 C.3   1 <1>   0.1620 
 19 O        6.6530     3.9840     1.6660 O.3   1 <1>  -0.6830 
 20 C        8.8250     4.6520     0.9220 C.3   1 <1>   0.1140 
 21 C        9.6940    -1.0180    -0.3540 C.3   1 <1>  -0.1660 
 22 C        8.8520    -1.9550     0.5000 C.3   1 <1>  -0.1660 
 23 O        9.9030     4.1930     0.1350 O.3   1 <1>  -0.3670 
 24 C       10.9800     4.9810    -0.1080 C.ar  1 <1>   0.0760 
 25 C       11.1350     6.2640     0.4080 C.ar  1 <1>  -0.1560 
 26 C       11.9670     4.4550    -0.9220 C.ar  1 <1>  -0.1560 
 27 C       12.2630     7.0140     0.1110 C.ar  1 <1>  -0.1490 
 28 C       13.0940     5.1980    -1.2200 C.ar  1 <1>  -0.1560 
 29 C       13.2510     6.4770    -0.7090 C.ar  1 <1>  -0.1490 
 30 C       12.3970     8.4140     0.6950 C.3   1 <1>  -0.1030 
 31 C       14.5060     7.2630    -1.0620 C.3   1 <1>  -0.1030 
 32 H        1.2010     4.7650     0.3560 H     1 <1>   0.0740 
 33 H        1.6770     4.9800    -1.3140 H     1 <1>   0.0740 
 34 H        2.6360     5.6780    -0.0240 H     1 <1>   0.0740 
 35 H        1.2010     0.0180     0.5620 H     1 <1>   0.0740 
 36 H        2.7320    -0.7670     0.8240 H     1 <1>   0.0740 
 37 H        2.0790    -0.6300    -0.8030 H     1 <1>   0.0740 
 38 H        4.9240    -0.7810     0.0270 H     1 <1>   0.4460 
 39 H        7.0640     3.8940    -1.0320 H     1 <1>   0.0740 
 40 H        8.2590     2.6710    -0.9490 H     1 <1>   0.0740 
 41 H        8.1850     2.7180     1.5330 H     1 <1>   0.0740 
 42 H        9.2220     0.9450     0.3530 H     1 <1>   0.0740 
 43 H        9.0050     0.7310    -1.3880 H     1 <1>   0.0740 
 44 H        7.0630    -2.1250    -0.6640 H     1 <1>   0.0740 
 45 H        6.7790    -1.7360     1.0350 H     1 <1>   0.0740 
 46 H        6.2450     4.7600     1.2190 H     1 <1>   0.3950 
 47 H        9.1930     4.8680     1.9100 H     1 <1>   0.0740 
 48 H        8.4270     5.5390     0.4600 H     1 <1>   0.0740 
 49 H       10.6740    -0.8580     0.0620 H     1 <1>   0.0740 
 50 H        9.8020    -1.4220    -1.3460 H     1 <1>   0.0740 
 51 H        9.0440    -2.9910     0.2800 H     1 <1>   0.0740 
 52 H        9.0500    -1.7790     1.5440 H     1 <1>   0.0740 
 53 H       10.3860     6.6940     1.0440 H     1 <1>   0.1440 
 54 H       11.8560     3.4650    -1.3220 H     1 <1>   0.1440 
 55 H       13.8510     4.7720    -1.8550 H     1 <1>   0.1440 
 56 H       11.5500     8.6600     1.3100 H     1 <1>   0.0740 
 57 H       12.4600     9.1370    -0.0970 H     1 <1>   0.0740 
 58 H       13.2830     8.4770     1.3000 H     1 <1>   0.0740 
 59 H       14.2410     8.1740    -1.5670 H     1 <1>   0.0740 
 60 H       15.1490     6.6940    -1.7080 H     1 <1>   0.0740 
 61 H       15.0540     7.5020    -0.1680 H     1 <1>   0.0740 
@<TRIPOS>BOND
  1   1   2  2   
  2   2   3  am  
  3   2   4  am  
  4   3   5  am  
  5   3   6  1   
  6   4   7  1   
  7   4   8  1   
  8   5   9  2   
  9   5  10  1   
 10   6  32  1   
 11   6  33  1   
 12   6  34  1   
 13   7  10  2   
 14   7  11  1   
 15   8  35  1   
 16   8  36  1   
 17   8  37  1   
 18  10  12  1   
 19  11  13  ar  
 20  11  38  1   
 21  12  13  ar  
 22  12  14  1   
 23  13  15  ar  
 24  14  16  1   
 25  14  39  1   
 26  14  40  1   
 27  15  17  1   
 28  15  18  1   
 29  16  19  1   
 30  16  20  1   
 31  16  41  1   
 32  17  21  1   
 33  17  42  1   
 34  17  43  1   
 35  18  22  1   
 36  18  44  1   
 37  18  45  1   
 38  19  46  1   
 39  20  23  1   
 40  20  47  1   
 41  20  48  1   
 42  21  22  1   
 43  21  49  1   
 44  21  50  1   
 45  22  51  1   
 46  22  52  1   
 47  23  24  1   
 48  24  25  ar  
 49  24  26  ar  
 50  25  27  ar  
 51  25  53  1   
 52  26  28  ar  
 53  26  54  1   
 54  27  29  ar  
 55  27  30  1   
 56  28  29  ar  
 57  28  55  1   
 58  29  31  1   
 59  30  56  1   
 60  30  57  1   
 61  30  58  1   
 62  31  59  1   
 63  31  60  1   
 64  31  61  1   
@<TRIPOS>SUBSTRUCTURE
  1 ****  14 GROUP 4 **** **** 0

# MOE 2024.06 (io_trps.svl 2023.06)
