@<TRIPOS>MOLECULE
2-Isopropoxy-5-trifluoromethyl-phenylamine
27 27 1 0 0 
SMALL
USER_CHARGES


@<TRIPOS>ATOM
  1 F        0.1650    -1.4330    -0.7280 F     1 <1>  -0.3400 
  2 C        0.9350    -1.2640     0.3410 C.3   1 <1>   1.1640 
  3 F        0.1190    -0.9620     1.3430 F     1 <1>  -0.3400 
  4 F        1.4420    -2.4590     0.6230 F     1 <1>  -0.3400 
  5 C        2.0170    -0.1920     0.1420 C.ar  1 <1>  -0.1440 
  6 C        1.8230     0.8610    -0.7460 C.ar  1 <1>  -0.1500 
  7 C        3.2130    -0.2470     0.8510 C.ar  1 <1>  -0.1500 
  8 C        2.7900     1.8360    -0.9330 C.ar  1 <1>   0.1000 
  9 C        4.1890     0.7210     0.6760 C.ar  1 <1>  -0.1500 
 10 N        2.5550     2.8680    -1.8310 N.pl3 1 <1>  -0.9000 
 11 C        3.9880     1.7690    -0.2140 C.ar  1 <1>   0.0830 
 12 O        4.9000     2.7660    -0.4350 O.3   1 <1>  -0.3630 
 13 C        6.1560     2.8180     0.2040 C.3   1 <1>   0.2000 
 14 C        5.9790     3.4340     1.5940 C.3   1 <1>  -0.2400 
 15 C        7.0640     3.6840    -0.6670 C.3   1 <1>  -0.2400 
 16 H        0.9130     0.9360    -1.3150 H     1 <1>   0.1500 
 17 H        3.3940    -1.0470     1.5500 H     1 <1>   0.1500 
 18 H        5.0940     0.6350     1.2460 H     1 <1>   0.1500 
 19 H        3.3270     3.5460    -1.8190 H     1 <1>   0.4000 
 20 H        1.6580     3.3460    -1.7160 H     1 <1>   0.4000 
 21 H        6.5660     1.8240     0.2560 H     1 <1>   0.0800 
 22 H        5.5660     4.4230     1.5120 H     1 <1>   0.0800 
 23 H        6.9310     3.5010     2.0880 H     1 <1>   0.0800 
 24 H        5.3270     2.8310     2.1980 H     1 <1>   0.0800 
 25 H        6.6600     4.6760    -0.7610 H     1 <1>   0.0800 
 26 H        7.1590     3.2440    -1.6430 H     1 <1>   0.0800 
 27 H        8.0420     3.7510    -0.2270 H     1 <1>   0.0800 
@<TRIPOS>BOND
  1   1   2  1   
  2   2   3  1   
  3   2   4  1   
  4   2   5  1   
  5   5   6  ar  
  6   5   7  ar  
  7   6   8  ar  
  8   6  16  1   
  9   7   9  ar  
 10   7  17  1   
 11   8  10  1   
 12   8  11  ar  
 13   9  11  ar  
 14   9  18  1   
 15  10  19  1   
 16  10  20  1   
 17  11  12  1   
 18  12  13  1   
 19  13  14  1   
 20  13  15  1   
 21  13  21  1   
 22  14  22  1   
 23  14  23  1   
 24  14  24  1   
 25  15  25  1   
 26  15  26  1   
 27  15  27  1   
@<TRIPOS>SUBSTRUCTURE
  1 ****  11 GROUP 4 **** **** 0

# MOE 2024.06 (io_trps.svl 2023.06)
