@<TRIPOS>MOLECULE
8-Bromo-7-[3-(3,4-dimethyl-phenoxy)-2-hydroxy-propyl]-3-methyl-3,7-dihydro-purin
45 47 1 0 0 
SMALL
USER_CHARGES


@<TRIPOS>ATOM
  1 BR       0.1640    -1.2180    -1.1010 Br    1 <1>  -0.0580 
  2 C       -1.5950    -0.5720    -0.6700 C.2   1 <1>   0.2440 
  3 N       -2.5700    -1.3820    -0.4060 N.2   1 <1>  -0.5650 
  4 N       -1.8660     0.7510    -0.6260 N.pl3 1 <1>   0.0480 
  5 C       -3.5680    -0.5230    -0.1640 C.2   1 <1>   0.2900 
  6 C       -3.1830     0.7750    -0.2780 C.2   1 <1>  -0.2370 
  7 C       -0.9590     1.8890    -0.9130 C.3   1 <1>   0.0960 
  8 N       -4.8800    -0.8540     0.1750 N.am  1 <1>  -0.4230 
  9 C       -4.1050     1.8200    -0.0320 C.2   1 <1>   0.7150 
 10 C       -0.5300     2.5940     0.3850 C.3   1 <1>   0.2000 
 11 C       -5.7860     0.1660     0.3930 C.2   1 <1>   0.6900 
 12 C       -5.2540    -2.2890     0.2830 C.3   1 <1>   0.0600 
 13 O       -3.8050     2.9970    -0.0670 O.2   1 <1>  -0.5700 
 14 N       -5.3760     1.4620     0.2810 N.am  1 <1>  -0.4900 
 15 O       -1.2760     3.7540     0.5450 O.3   1 <1>  -0.6800 
 16 C        0.9480     2.9910     0.3770 C.3   1 <1>   0.1200 
 17 O       -6.9450    -0.0420     0.6860 O.2   1 <1>  -0.5700 
 18 O        1.7280     1.8270     0.1960 O.3   1 <1>  -0.3630 
 19 C        3.0760     1.8930     0.0720 C.ar  1 <1>   0.0820 
 20 C        3.8100     3.0700     0.1800 C.ar  1 <1>  -0.1500 
 21 C        3.7360     0.7030    -0.1800 C.ar  1 <1>  -0.1500 
 22 C        5.1890     3.0580     0.0340 C.ar  1 <1>  -0.1430 
 23 C        5.1100     0.6860    -0.3260 C.ar  1 <1>  -0.1500 
 24 C        5.8450     1.8580    -0.2220 C.ar  1 <1>  -0.1430 
 25 C        5.9570     4.3670     0.1590 C.3   1 <1>  -0.0970 
 26 C        7.3570     1.7960    -0.3890 C.3   1 <1>  -0.0970 
 27 H       -1.4490     2.5810    -1.5730 H     1 <1>   0.0800 
 28 H       -0.0980     1.5070    -1.4270 H     1 <1>   0.0800 
 29 H       -0.7130     1.9670     1.2410 H     1 <1>   0.0800 
 30 H       -4.6460    -2.7610     1.0340 H     1 <1>   0.0800 
 31 H       -5.0830    -2.7750    -0.6610 H     1 <1>   0.0800 
 32 H       -6.2900    -2.3980     0.5510 H     1 <1>   0.0800 
 33 H       -6.0600     2.1870     0.4610 H     1 <1>   0.3700 
 34 H       -2.2440     3.5810     0.4170 H     1 <1>   0.4000 
 35 H        1.2210     3.4370     1.3170 H     1 <1>   0.0800 
 36 H        1.1510     3.6650    -0.4370 H     1 <1>   0.0800 
 37 H        3.3190     4.0020     0.3800 H     1 <1>   0.1500 
 38 H        3.1700    -0.2060    -0.2600 H     1 <1>   0.1500 
 39 H        5.6040    -0.2490    -0.5220 H     1 <1>   0.1500 
 40 H        5.2940     5.1900     0.3560 H     1 <1>   0.0800 
 41 H        6.4850     4.5730    -0.7540 H     1 <1>   0.0800 
 42 H        6.6630     4.3040     0.9670 H     1 <1>   0.0800 
 43 H        7.6610     2.4120    -1.2160 H     1 <1>   0.0800 
 44 H        7.6840     0.7900    -0.5810 H     1 <1>   0.0800 
 45 H        7.8410     2.1430     0.5050 H     1 <1>   0.0800 
@<TRIPOS>BOND
  1   1   2  1   
  2   2   3  2   
  3   2   4  1   
  4   3   5  1   
  5   4   6  1   
  6   4   7  1   
  7   5   6  2   
  8   5   8  1   
  9   6   9  1   
 10   7  10  1   
 11   7  27  1   
 12   7  28  1   
 13   8  11  am  
 14   8  12  1   
 15   9  13  2   
 16   9  14  am  
 17  10  15  1   
 18  10  16  1   
 19  10  29  1   
 20  11  14  am  
 21  11  17  2   
 22  12  30  1   
 23  12  31  1   
 24  12  32  1   
 25  14  33  1   
 26  15  34  1   
 27  16  18  1   
 28  16  35  1   
 29  16  36  1   
 30  18  19  1   
 31  19  20  ar  
 32  19  21  ar  
 33  20  22  ar  
 34  20  37  1   
 35  21  23  ar  
 36  21  38  1   
 37  22  24  ar  
 38  22  25  1   
 39  23  24  ar  
 40  23  39  1   
 41  24  26  1   
 42  25  40  1   
 43  25  41  1   
 44  25  42  1   
 45  26  43  1   
 46  26  44  1   
 47  26  45  1   
@<TRIPOS>SUBSTRUCTURE
  1 ****   7 GROUP 4 **** **** 0

# MOE 2024.06 (io_trps.svl 2023.06)
