@<TRIPOS>MOLECULE
Morpholine-4-carboxylic acid [3-(4-methoxy-phenyl)-[1,2,4]oxadiazol-5-ylmethyl]-
41 43 1 0 0 
SMALL
USER_CHARGES


@<TRIPOS>ATOM
  1 O       -0.0250     0.8440     1.2300 O.2   1 <1>  -0.5700 
  2 C        0.3950     1.5320     0.3200 C.2   1 <1>   0.6900 
  3 N       -0.4540     2.1890    -0.5250 N.am  1 <1>  -0.6600 
  4 N        1.7270     1.6350     0.1280 N.am  1 <1>  -0.7300 
  5 C       -0.1000     3.4460    -1.2490 C.3   1 <1>   0.1400 
  6 C       -1.9220     1.9120    -0.5180 C.3   1 <1>   0.1400 
  7 C        2.7370     0.9700     0.9870 C.3   1 <1>   0.3200 
  8 C       -0.9940     4.6080    -0.7820 C.3   1 <1>   0.1200 
  9 C       -2.7060     3.1630    -0.0880 C.3   1 <1>   0.1200 
 10 C        4.0230     1.7800     1.0410 C.2   1 <1>   0.2980 
 11 O       -2.3470     4.2630    -0.8770 O.3   1 <1>  -0.5600 
 12 O        4.0270     2.8970     1.7200 O.3   1 <1>  -0.0190 
 13 N        5.1190     1.4830     0.4720 N.2   1 <1>  -0.5650 
 14 N        5.2320     3.3510     1.5700 N.2   1 <1>  -0.4100 
 15 C        5.8820     2.5200     0.8350 C.2   1 <1>   0.4620 
 16 C        7.2710     2.6550     0.4260 C.ar  1 <1>   0.0540 
 17 C        8.0400     3.7510     0.8230 C.ar  1 <1>  -0.1500 
 18 C        7.8960     1.7010    -0.3810 C.ar  1 <1>  -0.1500 
 19 C        9.3610     3.8940     0.4390 C.ar  1 <1>  -0.1500 
 20 C        9.2150     1.8350    -0.7700 C.ar  1 <1>  -0.1500 
 21 C        9.9600     2.9300    -0.3660 C.ar  1 <1>   0.0820 
 22 O       11.2450     2.9890    -0.7890 O.3   1 <1>  -0.3620 
 23 C       12.0880     4.0620    -0.4330 C.3   1 <1>   0.0400 
 24 H        2.0540     1.9800    -0.7700 H     1 <1>   0.3700 
 25 H       -0.2390     3.2970    -2.3060 H     1 <1>   0.0800 
 26 H        0.9270     3.7120    -1.0790 H     1 <1>   0.0800 
 27 H       -2.1550     1.0990     0.1470 H     1 <1>   0.0800 
 28 H       -2.2310     1.6250    -1.5070 H     1 <1>   0.0800 
 29 H        2.9490    -0.0050     0.5860 H     1 <1>   0.0800 
 30 H        2.3530     0.8500     1.9850 H     1 <1>   0.0800 
 31 H       -0.8330     5.4740    -1.4000 H     1 <1>   0.0800 
 32 H       -0.7760     4.8660     0.2400 H     1 <1>   0.0800 
 33 H       -2.5080     3.3950     0.9440 H     1 <1>   0.0800 
 34 H       -3.7610     3.0000    -0.2100 H     1 <1>   0.0800 
 35 H        7.5930     4.5070     1.4460 H     1 <1>   0.1500 
 36 H        7.3410     0.8400    -0.7100 H     1 <1>   0.1500 
 37 H        9.9050     4.7560     0.7730 H     1 <1>   0.1500 
 38 H        9.6800     1.0910    -1.3910 H     1 <1>   0.1500 
 39 H       13.0510     3.8930    -0.8810 H     1 <1>   0.0800 
 40 H       12.1830     4.0910     0.6380 H     1 <1>   0.0800 
 41 H       11.6650     4.9770    -0.8090 H     1 <1>   0.0800 
@<TRIPOS>BOND
  1   1   2  2   
  2   2   3  am  
  3   2   4  am  
  4   3   5  1   
  5   3   6  1   
  6   4   7  1   
  7   4  24  1   
  8   5   8  1   
  9   5  25  1   
 10   5  26  1   
 11   6   9  1   
 12   6  27  1   
 13   6  28  1   
 14   7  10  1   
 15   7  29  1   
 16   7  30  1   
 17   8  11  1   
 18   8  31  1   
 19   8  32  1   
 20   9  11  1   
 21   9  33  1   
 22   9  34  1   
 23  10  12  1   
 24  10  13  2   
 25  12  14  1   
 26  13  15  1   
 27  14  15  2   
 28  15  16  1   
 29  16  17  ar  
 30  16  18  ar  
 31  17  19  ar  
 32  17  35  1   
 33  18  20  ar  
 34  18  36  1   
 35  19  21  ar  
 36  19  37  1   
 37  20  21  ar  
 38  20  38  1   
 39  21  22  1   
 40  22  23  1   
 41  23  39  1   
 42  23  40  1   
 43  23  41  1   
@<TRIPOS>SUBSTRUCTURE
  1 ****  10 GROUP 4 **** **** 0

# MOE 2024.06 (io_trps.svl 2023.06)
