@<TRIPOS>MOLECULE
4-(1,6-Dimethyl-3,4-dihydro-1H-pyrrolo[1,2-a]pyrazine-2-carbonyl)-N,N-dimethyl-b
48 50 1 0 0 
SMALL
USER_CHARGES


@<TRIPOS>ATOM
  1 S       -0.1280     0.0470     1.5180 S.o2  1 <1>   1.4470 
  2 O       -1.3650    -0.2430     2.2130 O.2   1 <1>  -0.6500 
  3 O        1.1340    -0.2800     2.1440 O.2   1 <1>  -0.6500 
  4 N       -0.1890    -0.7860     0.0360 N.am  1 <1>  -0.8490 
  5 C       -0.1060     1.7940     1.0170 C.ar  1 <1>  -0.0090 
  6 C       -1.5060    -0.7220    -0.6060 C.3   1 <1>   0.1160 
  7 C        0.2310    -2.1830     0.1740 C.3   1 <1>   0.1160 
  8 C        0.7400     2.2450     0.0110 C.ar  1 <1>  -0.1500 
  9 C       -0.9230     2.7320     1.6370 C.ar  1 <1>  -0.1500 
 10 C        0.7580     3.5750    -0.3700 C.ar  1 <1>  -0.1500 
 11 C       -0.9040     4.0630     1.2590 C.ar  1 <1>  -0.1500 
 12 C       -0.0720     4.5130     0.2370 C.ar  1 <1>   0.0860 
 13 C       -0.0620     5.9040    -0.1750 C.2   1 <1>   0.5440 
 14 O        0.9870     6.5170    -0.1680 O.2   1 <1>  -0.5700 
 15 N       -1.2090     6.5440    -0.5860 N.am  1 <1>  -0.6600 
 16 C       -1.2570     8.0310    -0.6550 C.3   1 <1>   0.4000 
 17 C       -2.4450     5.8410    -1.0450 C.3   1 <1>   0.1400 
 18 C       -2.6170     8.5340    -0.1890 C.2   1 <1>  -0.3320 
 19 C       -0.9920     8.4790    -2.0890 C.3   1 <1>  -0.2400 
 20 C       -3.6540     6.2470    -0.1970 C.3   1 <1>   0.0960 
 21 N       -3.6890     7.7120    -0.0230 N.pl3 1 <1>   0.0480 
 22 C       -2.9790     9.8070     0.1240 C.2   1 <1>  -0.1500 
 23 C       -4.7340     8.4790     0.3980 C.2   1 <1>  -0.3320 
 24 C       -4.3260     9.7710     0.4950 C.2   1 <1>  -0.1500 
 25 C       -6.1160     7.9290     0.7040 C.3   1 <1>  -0.0600 
 26 H       -1.8030     0.3040    -0.7400 H     1 <1>   0.0800 
 27 H       -2.2460    -1.2220    -0.0030 H     1 <1>   0.0800 
 28 H       -1.4670    -1.1920    -1.5740 H     1 <1>   0.0800 
 29 H        1.2420    -2.2290     0.5460 H     1 <1>   0.0800 
 30 H        0.2030    -2.6780    -0.7810 H     1 <1>   0.0800 
 31 H       -0.4140    -2.7030     0.8640 H     1 <1>   0.0800 
 32 H        1.3950     1.5410    -0.4770 H     1 <1>   0.1500 
 33 H       -1.5780     2.4140     2.4330 H     1 <1>   0.1500 
 34 H        1.4280     3.9030    -1.1480 H     1 <1>   0.1500 
 35 H       -1.5360     4.7720     1.7650 H     1 <1>   0.1500 
 36 H       -0.5000     8.4480    -0.0120 H     1 <1>   0.0800 
 37 H       -2.3190     4.7740    -1.0090 H     1 <1>   0.0800 
 38 H       -2.6350     6.1050    -2.0710 H     1 <1>   0.0800 
 39 H       -1.7700     8.1410    -2.7460 H     1 <1>   0.0800 
 40 H       -0.0420     8.1010    -2.4210 H     1 <1>   0.0800 
 41 H       -0.9620     9.5520    -2.1260 H     1 <1>   0.0800 
 42 H       -3.5890     5.7930     0.7740 H     1 <1>   0.0800 
 43 H       -4.5610     5.9250    -0.6720 H     1 <1>   0.0800 
 44 H       -2.3700    10.6940     0.1010 H     1 <1>   0.1500 
 45 H       -4.9030    10.6270     0.7980 H     1 <1>   0.1500 
 46 H       -6.5410     7.4830    -0.1760 H     1 <1>   0.0800 
 47 H       -6.7630     8.7220     1.0320 H     1 <1>   0.0800 
 48 H       -6.0570     7.1910     1.4840 H     1 <1>   0.0800 
@<TRIPOS>BOND
  1   1   2  2   
  2   1   3  2   
  3   1   4  am  
  4   1   5  1   
  5   4   6  1   
  6   4   7  1   
  7   5   8  ar  
  8   5   9  ar  
  9   6  26  1   
 10   6  27  1   
 11   6  28  1   
 12   7  29  1   
 13   7  30  1   
 14   7  31  1   
 15   8  10  ar  
 16   8  32  1   
 17   9  11  ar  
 18   9  33  1   
 19  10  12  ar  
 20  10  34  1   
 21  11  12  ar  
 22  11  35  1   
 23  12  13  1   
 24  13  14  2   
 25  13  15  am  
 26  15  16  1   
 27  15  17  1   
 28  16  18  1   
 29  16  19  1   
 30  16  36  1   
 31  17  20  1   
 32  17  37  1   
 33  17  38  1   
 34  18  21  1   
 35  18  22  2   
 36  19  39  1   
 37  19  40  1   
 38  19  41  1   
 39  20  21  1   
 40  20  42  1   
 41  20  43  1   
 42  21  23  1   
 43  22  24  1   
 44  22  44  1   
 45  23  24  2   
 46  23  25  1   
 47  24  45  1   
 48  25  46  1   
 49  25  47  1   
 50  25  48  1   
@<TRIPOS>SUBSTRUCTURE
  1 ****  11 GROUP 4 **** **** 0

# MOE 2024.06 (io_trps.svl 2023.06)
