@<TRIPOS>MOLECULE
3-Oxo-3,4-dihydro-2H-benzo[1,4]oxazine-6-sulfonic acid (2-cyclohex-1-enyl-ethyl)
43 45 1 0 0 
SMALL
USER_CHARGES


@<TRIPOS>ATOM
  1 S        0.1980    -0.4980     0.7320 S.o2  1 <1>   1.4470 
  2 O        0.2520     0.9410     0.8470 O.2   1 <1>  -0.6500 
  3 O        0.7780    -1.3390     1.7530 O.2   1 <1>  -0.6500 
  4 N        1.0000    -0.8160    -0.7080 N.am  1 <1>  -0.9140 
  5 C       -1.5020    -1.0290     0.3900 C.ar  1 <1>  -0.0090 
  6 C        2.4320    -1.0900    -0.5830 C.3   1 <1>   0.1960 
  7 C       -2.5790    -0.1780     0.6130 C.ar  1 <1>  -0.1500 
  8 C       -1.7660    -2.3050    -0.0970 C.ar  1 <1>  -0.1500 
  9 C        3.2270     0.1490    -0.1450 C.3   1 <1>  -0.0220 
 10 C       -3.8820    -0.5770     0.3590 C.ar  1 <1>   0.1170 
 11 C       -3.0610    -2.7220    -0.3580 C.ar  1 <1>  -0.1500 
 12 C        4.7430    -0.0400    -0.1830 C.2   1 <1>  -0.2760 
 13 N       -4.9630     0.2800     0.5720 N.am  1 <1>  -0.5470 
 14 C       -4.1200    -1.8640    -0.1300 C.ar  1 <1>   0.0830 
 15 C        5.3850    -1.1610    -0.5420 C.2   1 <1>  -0.2880 
 16 C        5.4930     1.2160     0.2550 C.3   1 <1>  -0.0220 
 17 C       -6.2460    -0.1270     0.4280 C.2   1 <1>   0.5690 
 18 O       -5.3800    -2.3010    -0.4040 O.3   1 <1>  -0.3630 
 19 C        6.8970    -1.3260    -0.5380 C.3   1 <1>  -0.0220 
 20 C        6.9840     1.1610    -0.1080 C.3   1 <1>  -0.1600 
 21 O       -7.1620     0.6460     0.5600 O.2   1 <1>  -0.5700 
 22 C       -6.5120    -1.6010     0.1220 C.3   1 <1>   0.1810 
 23 C        7.5860    -0.2030     0.2470 C.3   1 <1>  -0.1600 
 24 H        0.8990     0.0450    -1.2410 H     1 <1>   0.4200 
 25 H        2.7940    -1.4070    -1.5460 H     1 <1>   0.0800 
 26 H        2.5970    -1.8980     0.1120 H     1 <1>   0.0800 
 27 H       -2.3960     0.8130     0.9910 H     1 <1>   0.1500 
 28 H       -0.9460    -2.9820    -0.2740 H     1 <1>   0.1500 
 29 H        2.9520     0.4070     0.8620 H     1 <1>   0.0800 
 30 H        2.9710     0.9700    -0.7900 H     1 <1>   0.0800 
 31 H       -3.2530    -3.7100    -0.7370 H     1 <1>   0.1500 
 32 H       -4.8210     1.2620     0.8050 H     1 <1>   0.3700 
 33 H        4.8940    -2.0610    -0.8670 H     1 <1>   0.1500 
 34 H        5.3870     1.3260     1.3200 H     1 <1>   0.0800 
 35 H        5.0620     2.0850    -0.2120 H     1 <1>   0.0800 
 36 H        7.2470    -1.3260    -1.5560 H     1 <1>   0.0800 
 37 H        7.1560    -2.2720    -0.0960 H     1 <1>   0.0800 
 38 H        7.5090     1.9430     0.4110 H     1 <1>   0.0800 
 39 H        7.0950     1.3290    -1.1650 H     1 <1>   0.0800 
 40 H       -7.3070    -1.6810    -0.5950 H     1 <1>   0.0800 
 41 H       -6.8070    -2.0970     1.0280 H     1 <1>   0.0800 
 42 H        8.6410    -0.2090     0.0360 H     1 <1>   0.0800 
 43 H        7.4560    -0.3800     1.3010 H     1 <1>   0.0800 
@<TRIPOS>BOND
  1   1   2  2   
  2   1   3  2   
  3   1   4  am  
  4   1   5  1   
  5   4   6  1   
  6   4  24  1   
  7   5   7  ar  
  8   5   8  ar  
  9   6   9  1   
 10   6  25  1   
 11   6  26  1   
 12   7  10  ar  
 13   7  27  1   
 14   8  11  ar  
 15   8  28  1   
 16   9  12  1   
 17   9  29  1   
 18   9  30  1   
 19  10  13  1   
 20  10  14  ar  
 21  11  14  ar  
 22  11  31  1   
 23  12  15  2   
 24  12  16  1   
 25  13  17  am  
 26  13  32  1   
 27  14  18  1   
 28  15  19  1   
 29  15  33  1   
 30  16  20  1   
 31  16  34  1   
 32  16  35  1   
 33  17  21  2   
 34  17  22  1   
 35  18  22  1   
 36  19  23  1   
 37  19  36  1   
 38  19  37  1   
 39  20  23  1   
 40  20  38  1   
 41  20  39  1   
 42  22  40  1   
 43  22  41  1   
 44  23  42  1   
 45  23  43  1   
@<TRIPOS>SUBSTRUCTURE
  1 ****   1 GROUP 4 **** **** 0

# MOE 2024.06 (io_trps.svl 2023.06)
