@<TRIPOS>MOLECULE
6-(5-Methyl-2-oxo-imidazolidin-4-yl)-hexanoic acid (4-fluoro-phenyl)-amide
44 45 1 0 0 
SMALL
USER_CHARGES


@<TRIPOS>ATOM
  1 F       -0.6450    -0.2710     1.4150 F     1 <1>  -0.1900 
  2 C       -1.9200    -0.2860     1.1250 C.ar  1 <1>   0.1900 
  3 C       -2.8060     0.3470     1.9750 C.ar  1 <1>  -0.1500 
  4 C       -2.3370    -0.9350    -0.0210 C.ar  1 <1>  -0.1500 
  5 C       -4.1540     0.3270     1.6600 C.ar  1 <1>  -0.1500 
  6 C       -3.6880    -0.9470    -0.3210 C.ar  1 <1>  -0.1500 
  7 C       -4.6130    -0.3160     0.5110 C.ar  1 <1>   0.1170 
  8 N       -5.9930    -0.3120     0.2520 N.am  1 <1>  -0.5470 
  9 C       -6.6900    -0.5040    -0.9090 C.2   1 <1>   0.5690 
 10 O       -6.1770    -0.6970    -1.9820 O.2   1 <1>  -0.5700 
 11 C       -8.2030    -0.4620    -0.8290 C.3   1 <1>  -0.0990 
 12 C       -8.7850    -1.7750    -0.2790 C.3   1 <1>  -0.1600 
 13 C      -10.3160    -1.7160    -0.2150 C.3   1 <1>  -0.1600 
 14 C      -10.9010    -3.0420     0.2930 C.3   1 <1>  -0.1600 
 15 C      -12.4050    -2.9930     0.6320 C.3   1 <1>  -0.1600 
 16 C      -13.3520    -2.8080    -0.5710 C.3   1 <1>   0.2200 
 17 N      -13.2890    -1.4180    -1.0540 N.am  1 <1>  -0.7300 
 18 C      -14.8800    -2.9980    -0.3000 C.3   1 <1>   0.2200 
 19 C      -14.4820    -0.8210    -0.9830 C.2   1 <1>   0.6900 
 20 N      -15.4450    -1.6950    -0.6770 N.am  1 <1>  -0.7300 
 21 C      -15.3160    -3.2990     1.1370 C.3   1 <1>  -0.2400 
 22 O      -14.6480     0.3750    -1.0650 O.2   1 <1>  -0.5700 
 23 H       -2.4430     0.8420     2.8570 H     1 <1>   0.1500 
 24 H       -1.6200    -1.4180    -0.6610 H     1 <1>   0.1500 
 25 H       -4.8520     0.8190     2.3120 H     1 <1>   0.1500 
 26 H       -4.0190    -1.4560    -1.2080 H     1 <1>   0.1500 
 27 H       -6.5720    -0.1050     1.0620 H     1 <1>   0.3700 
 28 H       -8.5870    -0.2870    -1.8190 H     1 <1>   0.0800 
 29 H       -8.5010     0.3650    -0.2120 H     1 <1>   0.0800 
 30 H       -8.3890    -1.9630     0.7040 H     1 <1>   0.0800 
 31 H       -8.4820    -2.5860    -0.9200 H     1 <1>   0.0800 
 32 H      -10.6860    -1.5130    -1.2040 H     1 <1>   0.0800 
 33 H      -10.6160    -0.9140     0.4390 H     1 <1>   0.0800 
 34 H      -10.3750    -3.3260     1.1890 H     1 <1>   0.0800 
 35 H      -10.7220    -3.8130    -0.4380 H     1 <1>   0.0800 
 36 H      -12.5910    -2.2250     1.3630 H     1 <1>   0.0800 
 37 H      -12.6390    -3.9350     1.0940 H     1 <1>   0.0800 
 38 H      -13.0560    -3.4720    -1.3650 H     1 <1>   0.0800 
 39 H      -12.4570    -0.8530    -0.9100 H     1 <1>   0.3700 
 40 H      -15.2670    -3.7550    -0.9610 H     1 <1>   0.0800 
 41 H      -16.3070    -1.3450    -0.2650 H     1 <1>   0.3700 
 42 H      -14.9720    -2.5340     1.8110 H     1 <1>   0.0800 
 43 H      -14.9240    -4.2470     1.4540 H     1 <1>   0.0800 
 44 H      -16.3880    -3.3530     1.1890 H     1 <1>   0.0800 
@<TRIPOS>BOND
  1   1   2  1   
  2   2   3  ar  
  3   2   4  ar  
  4   3   5  ar  
  5   3  23  1   
  6   4   6  ar  
  7   4  24  1   
  8   5   7  ar  
  9   5  25  1   
 10   6   7  ar  
 11   6  26  1   
 12   7   8  1   
 13   8   9  am  
 14   8  27  1   
 15   9  10  2   
 16   9  11  1   
 17  11  12  1   
 18  11  28  1   
 19  11  29  1   
 20  12  13  1   
 21  12  30  1   
 22  12  31  1   
 23  13  14  1   
 24  13  32  1   
 25  13  33  1   
 26  14  15  1   
 27  14  34  1   
 28  14  35  1   
 29  15  16  1   
 30  15  36  1   
 31  15  37  1   
 32  16  17  1   
 33  16  18  1   
 34  16  38  1   
 35  17  19  am  
 36  17  39  1   
 37  18  20  1   
 38  18  21  1   
 39  18  40  1   
 40  19  20  am  
 41  19  22  2   
 42  20  41  1   
 43  21  42  1   
 44  21  43  1   
 45  21  44  1   
@<TRIPOS>SUBSTRUCTURE
  1 ****  12 GROUP 4 **** **** 0

# MOE 2024.06 (io_trps.svl 2023.06)
