@<TRIPOS>MOLECULE
Morpholine-4-carboxylic acid cyclohexyl-[3-(4-methoxy-phenyl)-[1,2,4]oxadiazol-5
57 60 1 0 0 
SMALL
USER_CHARGES


@<TRIPOS>ATOM
  1 O       -0.3550     1.5530    -1.4670 O.2   1 <1>  -0.5700 
  2 C        0.3130     2.1930    -0.6750 C.2   1 <1>   0.6900 
  3 N        0.0010     2.2010     0.6570 N.am  1 <1>  -0.6600 
  4 N        1.3910     2.8850    -1.1370 N.am  1 <1>  -0.6600 
  5 C       -1.3010     1.6890     1.1660 C.3   1 <1>   0.1400 
  6 C        0.9060     2.6920     1.7360 C.3   1 <1>   0.1400 
  7 C        1.2890     4.3050    -1.5840 C.3   1 <1>   0.2200 
  8 C        2.4580     2.0710    -1.7860 C.3   1 <1>   0.3200 
  9 C       -1.9310     2.7070     2.1300 C.3   1 <1>   0.1200 
 10 C        0.1530     3.6530     2.6700 C.3   1 <1>   0.1200 
 11 C        2.3850     5.1420    -0.9050 C.3   1 <1>  -0.1600 
 12 C       -0.1000     4.9160    -1.3140 C.3   1 <1>  -0.1600 
 13 C        3.6700     1.9360    -0.8780 C.2   1 <1>   0.2980 
 14 O       -1.0290     3.0660     3.1410 O.3   1 <1>  -0.5600 
 15 C        2.3200     6.6160    -1.3290 C.3   1 <1>  -0.1600 
 16 C       -0.1640     6.3880    -1.7450 C.3   1 <1>  -0.1600 
 17 O        3.5270     1.3170     0.2640 O.3   1 <1>  -0.0190 
 18 N        4.8380     2.3780    -1.1150 N.2   1 <1>  -0.5650 
 19 C        0.9330     7.2120    -1.0610 C.3   1 <1>  -0.1600 
 20 N        4.7010     1.3830     0.8100 N.2   1 <1>  -0.4100 
 21 C        5.4800     2.0080    -0.0010 C.2   1 <1>   0.4620 
 22 C        6.8840     2.3010     0.2290 C.ar  1 <1>   0.0540 
 23 C        7.6520     3.0040    -0.7030 C.ar  1 <1>  -0.1500 
 24 C        7.5270     1.8910     1.4000 C.ar  1 <1>  -0.1500 
 25 C        8.9860     3.2840    -0.4760 C.ar  1 <1>  -0.1500 
 26 C        8.8620     2.1670     1.6340 C.ar  1 <1>  -0.1500 
 27 C        9.6040     2.8700     0.6910 C.ar  1 <1>   0.0820 
 28 O       10.9140     3.1840     0.8380 O.3   1 <1>  -0.3620 
 29 C       11.6360     2.8070     1.9890 C.3   1 <1>   0.0400 
 30 H       -1.1390     0.7590     1.6820 H     1 <1>   0.0800 
 31 H       -1.9780     1.5050     0.3500 H     1 <1>   0.0800 
 32 H        1.7640     3.1900     1.3250 H     1 <1>   0.0800 
 33 H        1.2590     1.8510     2.3060 H     1 <1>   0.0800 
 34 H        1.4490     4.3370    -2.6490 H     1 <1>   0.0800 
 35 H        2.7560     2.5260    -2.7130 H     1 <1>   0.0800 
 36 H        2.0850     1.0860    -2.0080 H     1 <1>   0.0800 
 37 H       -2.8000     2.2830     2.6010 H     1 <1>   0.0800 
 38 H       -2.2250     3.5960     1.5990 H     1 <1>   0.0800 
 39 H       -0.0960     4.5640     2.1540 H     1 <1>   0.0800 
 40 H        0.7620     3.8940     3.5220 H     1 <1>   0.0800 
 41 H        3.3540     4.7570    -1.1620 H     1 <1>   0.0800 
 42 H        2.2690     5.0830     0.1620 H     1 <1>   0.0800 
 43 H       -0.3240     4.8570    -0.2640 H     1 <1>   0.0800 
 44 H       -0.8480     4.3640    -1.8560 H     1 <1>   0.0800 
 45 H        2.5450     6.6960    -2.3790 H     1 <1>   0.0800 
 46 H        3.0640     7.1790    -0.7900 H     1 <1>   0.0800 
 47 H       -1.1290     6.7940    -1.4940 H     1 <1>   0.0800 
 48 H       -0.0470     6.4530    -2.8140 H     1 <1>   0.0800 
 49 H        0.9000     8.2260    -1.4210 H     1 <1>   0.0800 
 50 H        0.7530     7.2350     0.0010 H     1 <1>   0.0800 
 51 H        7.1980     3.3380    -1.6190 H     1 <1>   0.1500 
 52 H        6.9700     1.3460     2.1410 H     1 <1>   0.1500 
 53 H        9.5610     3.8270    -1.2050 H     1 <1>   0.1500 
 54 H        9.3060     1.8280     2.5510 H     1 <1>   0.1500 
 55 H       12.6450     3.1610     1.8800 H     1 <1>   0.0800 
 56 H       11.6320     1.7340     2.0670 H     1 <1>   0.0800 
 57 H       11.1800     3.2600     2.8510 H     1 <1>   0.0800 
@<TRIPOS>BOND
  1   1   2  2   
  2   2   3  am  
  3   2   4  am  
  4   3   5  1   
  5   3   6  1   
  6   4   7  1   
  7   4   8  1   
  8   5   9  1   
  9   5  30  1   
 10   5  31  1   
 11   6  10  1   
 12   6  32  1   
 13   6  33  1   
 14   7  11  1   
 15   7  12  1   
 16   7  34  1   
 17   8  13  1   
 18   8  35  1   
 19   8  36  1   
 20   9  14  1   
 21   9  37  1   
 22   9  38  1   
 23  10  14  1   
 24  10  39  1   
 25  10  40  1   
 26  11  15  1   
 27  11  41  1   
 28  11  42  1   
 29  12  16  1   
 30  12  43  1   
 31  12  44  1   
 32  13  17  1   
 33  13  18  2   
 34  15  19  1   
 35  15  45  1   
 36  15  46  1   
 37  16  19  1   
 38  16  47  1   
 39  16  48  1   
 40  17  20  1   
 41  18  21  1   
 42  19  49  1   
 43  19  50  1   
 44  20  21  2   
 45  21  22  1   
 46  22  23  ar  
 47  22  24  ar  
 48  23  25  ar  
 49  23  51  1   
 50  24  26  ar  
 51  24  52  1   
 52  25  27  ar  
 53  25  53  1   
 54  26  27  ar  
 55  26  54  1   
 56  27  28  1   
 57  28  29  1   
 58  29  55  1   
 59  29  56  1   
 60  29  57  1   
@<TRIPOS>SUBSTRUCTURE
  1 ****  13 GROUP 4 **** **** 0

# MOE 2024.06 (io_trps.svl 2023.06)
