@<TRIPOS>MOLECULE
3-Methyl-4-oxo-3,4-dihydro-phthalazine-1-carboxylic acid tert-butylamide
36 37 1 0 0 
SMALL
USER_CHARGES


@<TRIPOS>ATOM
  1 O        0.2410     0.7090     0.0530 O.2   1 <1>  -0.5700 
  2 C       -0.1670     1.8610     0.1090 C.2   1 <1>   0.5440 
  3 N        0.6340     2.9110    -0.3170 N.am  1 <1>  -0.2980 
  4 C       -1.4760     2.1870     0.5950 C.ar  1 <1>   0.0860 
  5 N        0.2960     4.2230    -0.2250 N.2   1 <1>  -0.5120 
  6 C        1.9730     2.6120    -0.8770 C.3   1 <1>   0.0600 
  7 C       -1.8490     3.5420     0.6550 C.ar  1 <1>   0.0860 
  8 C       -2.3820     1.1920     0.9770 C.ar  1 <1>  -0.1500 
  9 C       -0.8660     4.5480     0.2870 C.2   1 <1>   0.3640 
 10 C       -3.1710     3.8200     1.0460 C.ar  1 <1>  -0.1500 
 11 C       -3.6580     1.5030     1.3850 C.ar  1 <1>  -0.1500 
 12 C       -1.1390     5.9680     0.4680 C.2   1 <1>   0.6300 
 13 C       -4.0550     2.8280     1.4110 C.ar  1 <1>  -0.1500 
 14 O       -1.8200     6.3880     1.3900 O.2   1 <1>  -0.5700 
 15 N       -0.5850     6.8760    -0.4030 N.am  1 <1>  -0.7300 
 16 C       -0.6470     8.3400    -0.4220 C.3   1 <1>   0.3000 
 17 C       -2.0980     8.7990    -0.5740 C.3   1 <1>  -0.2400 
 18 C       -0.0120     8.9020     0.8500 C.3   1 <1>  -0.2400 
 19 C        0.1590     8.7900    -1.6380 C.3   1 <1>  -0.2400 
 20 H        1.8680     1.9700    -1.7330 H     1 <1>   0.0800 
 21 H        2.5680     2.1140    -0.1330 H     1 <1>   0.0800 
 22 H        2.4630     3.5220    -1.1720 H     1 <1>   0.0800 
 23 H       -2.0700     0.1610     0.9430 H     1 <1>   0.1500 
 24 H       -3.5370     4.8300     1.0710 H     1 <1>   0.1500 
 25 H       -4.3460     0.7270     1.6760 H     1 <1>   0.1500 
 26 H       -5.0570     3.0790     1.7160 H     1 <1>   0.1500 
 27 H        0.1090     6.4890    -1.0450 H     1 <1>   0.3700 
 28 H       -2.6760     8.5300     0.2910 H     1 <1>   0.0800 
 29 H       -2.5440     8.3550    -1.4450 H     1 <1>   0.0800 
 30 H       -2.1390     9.8680    -0.6760 H     1 <1>   0.0800 
 31 H        0.9920     8.5350     0.9640 H     1 <1>   0.0800 
 32 H       -0.5850     8.6240     1.7160 H     1 <1>   0.0800 
 33 H        0.0190     9.9750     0.8060 H     1 <1>   0.0800 
 34 H        1.1830     8.4710    -1.5540 H     1 <1>   0.0800 
 35 H        0.1490     9.8630    -1.7110 H     1 <1>   0.0800 
 36 H       -0.2640     8.3890    -2.5420 H     1 <1>   0.0800 
@<TRIPOS>BOND
  1   1   2  2   
  2   2   3  am  
  3   2   4  1   
  4   3   5  1   
  5   3   6  1   
  6   4   7  ar  
  7   4   8  ar  
  8   5   9  2   
  9   6  20  1   
 10   6  21  1   
 11   6  22  1   
 12   7   9  1   
 13   7  10  ar  
 14   8  11  ar  
 15   8  23  1   
 16   9  12  1   
 17  10  13  ar  
 18  10  24  1   
 19  11  13  ar  
 20  11  25  1   
 21  12  14  2   
 22  12  15  am  
 23  13  26  1   
 24  15  16  1   
 25  15  27  1   
 26  16  17  1   
 27  16  18  1   
 28  16  19  1   
 29  17  28  1   
 30  17  29  1   
 31  17  30  1   
 32  18  31  1   
 33  18  32  1   
 34  18  33  1   
 35  19  34  1   
 36  19  35  1   
 37  19  36  1   
@<TRIPOS>SUBSTRUCTURE
  1 ****   9 GROUP 4 **** **** 0

# MOE 2024.06 (io_trps.svl 2023.06)
