@<TRIPOS>MOLECULE
4-(4-Fluoro-phenylamino)-piperidine-4-carboxylic acid amide
34 35 1 0 0 
SMALL
USER_CHARGES


@<TRIPOS>ATOM
  1 F        1.5360     1.5380    -0.1640 F     1 <1>  -0.1900 
  2 C        0.6260     2.4610    -0.3410 C.ar  1 <1>   0.1900 
  3 C        0.3610     3.3420     0.6890 C.ar  1 <1>  -0.1500 
  4 C       -0.0360     2.5240    -1.5520 C.ar  1 <1>  -0.1500 
  5 C       -0.6040     4.3150     0.4970 C.ar  1 <1>  -0.1500 
  6 C       -0.9990     3.5020    -1.7290 C.ar  1 <1>  -0.1500 
  7 C       -1.3010     4.4010    -0.7090 C.ar  1 <1>   0.1000 
  8 N       -2.2770     5.3690    -0.9370 N.pl3 1 <1>  -0.8690 
  9 C       -3.4240     5.6420    -0.0030 C.3   1 <1>   0.4300 
 10 C       -3.0690     6.7390     1.0550 C.2   1 <1>   0.5690 
 11 C       -3.8730     4.3220     0.6610 C.3   1 <1>  -0.1600 
 12 C       -4.5690     6.1510    -0.8950 C.3   1 <1>  -0.1600 
 13 O       -3.8420     6.9860     1.9490 O.2   1 <1>  -0.5700 
 14 N       -1.9180     7.4370     0.9580 N.am  1 <1>  -0.8000 
 15 C       -5.2010     4.4590     1.4050 C.3   1 <1>   0.3430 
 16 C       -5.8750     6.2990    -0.1150 C.3   1 <1>   0.3430 
 17 N       -6.2470     4.9910     0.4890 N.4   1 <1>  -0.9060 
 18 H        0.9040     3.2650     1.6140 H     1 <1>   0.1500 
 19 H        0.2040     1.8230    -2.3320 H     1 <1>   0.1500 
 20 H       -0.8060     5.0100     1.2900 H     1 <1>   0.1500 
 21 H       -1.5160     3.5650    -2.6690 H     1 <1>   0.1500 
 22 H       -2.5480     5.4490    -1.9220 H     1 <1>   0.4000 
 23 H       -3.1330     4.0100     1.3750 H     1 <1>   0.0800 
 24 H       -3.9620     3.5480    -0.0800 H     1 <1>   0.0800 
 25 H       -4.7290     5.4780    -1.7190 H     1 <1>   0.0800 
 26 H       -4.3000     7.1120    -1.2970 H     1 <1>   0.0800 
 27 H       -1.6650     8.1570     1.6370 H     1 <1>   0.3700 
 28 H       -1.2310     7.2170     0.2280 H     1 <1>   0.3700 
 29 H       -5.0800     5.1240     2.2460 H     1 <1>   0.0800 
 30 H       -5.5000     3.4960     1.7880 H     1 <1>   0.0800 
 31 H       -6.6570     6.6350    -0.7780 H     1 <1>   0.0800 
 32 H       -5.7560     7.0400     0.6610 H     1 <1>   0.0800 
 33 H       -7.1210     5.1080     1.0210 H     1 <1>   0.4500 
 34 H       -6.4400     4.3050    -0.2500 H     1 <1>   0.4500 
@<TRIPOS>BOND
  1   1   2  1   
  2   2   3  ar  
  3   2   4  ar  
  4   3   5  ar  
  5   3  18  1   
  6   4   6  ar  
  7   4  19  1   
  8   5   7  ar  
  9   5  20  1   
 10   6   7  ar  
 11   6  21  1   
 12   7   8  1   
 13   8   9  1   
 14   8  22  1   
 15   9  10  1   
 16   9  11  1   
 17   9  12  1   
 18  10  13  2   
 19  10  14  am  
 20  11  15  1   
 21  11  23  1   
 22  11  24  1   
 23  12  16  1   
 24  12  25  1   
 25  12  26  1   
 26  14  27  1   
 27  14  28  1   
 28  15  17  1   
 29  15  29  1   
 30  15  30  1   
 31  16  17  1   
 32  16  31  1   
 33  16  32  1   
 34  17  33  1   
 35  17  34  1   
@<TRIPOS>SUBSTRUCTURE
  1 ****   8 GROUP 4 **** **** 0

# MOE 2024.06 (io_trps.svl 2023.06)
