@<TRIPOS>MOLECULE
3-Cyclohexyl-1-[3-(3,4-dimethoxy-phenyl)-[1,2,4]oxadiazol-5-ylmethyl]-1-isopropy
59 61 1 0 0 
SMALL
USER_CHARGES


@<TRIPOS>ATOM
  1 O        0.3950     0.1580     0.7380 O.2   1 <1>  -0.5700 
  2 C        0.6290     1.3500     0.8060 C.2   1 <1>   0.6900 
  3 N        1.8360     1.7940     1.2860 N.am  1 <1>  -0.6600 
  4 N       -0.3100     2.2330     0.3990 N.am  1 <1>  -0.7300 
  5 C        2.2600     3.2090     1.4960 C.3   1 <1>   0.2200 
  6 C        2.9060     0.7880     1.5890 C.3   1 <1>   0.3200 
  7 C       -1.6170     1.9070    -0.1860 C.3   1 <1>   0.2200 
  8 C        1.3530     3.9170     2.5050 C.3   1 <1>  -0.2400 
  9 C        2.3660     3.9600     0.1670 C.3   1 <1>  -0.2400 
 10 C        4.0770     0.9070     0.6250 C.2   1 <1>   0.2980 
 11 C       -1.6380     2.3830    -1.6420 C.3   1 <1>  -0.1600 
 12 C       -2.7110     2.5910     0.6400 C.3   1 <1>  -0.1600 
 13 O        3.8910     0.5910    -0.6290 O.3   1 <1>  -0.0190 
 14 N        5.2490     1.3030     0.9190 N.2   1 <1>  -0.5650 
 15 C       -3.0210     2.1710    -2.2760 C.3   1 <1>  -0.1600 
 16 C       -4.0960     2.3790     0.0110 C.3   1 <1>  -0.1600 
 17 N        5.0430     0.8080    -1.1840 N.2   1 <1>  -0.4100 
 18 C        5.8490     1.2280    -0.2740 C.2   1 <1>   0.4620 
 19 C       -4.1200     2.8520    -1.4490 C.3   1 <1>  -0.1600 
 20 C        7.2410     1.5910    -0.4770 C.ar  1 <1>   0.0540 
 21 C        8.0540     2.0080     0.5790 C.ar  1 <1>  -0.1500 
 22 C        7.8250     1.5320    -1.7450 C.ar  1 <1>  -0.1500 
 23 C        9.3800     2.3510     0.3880 C.ar  1 <1>   0.0830 
 24 C        9.1460     1.8870    -1.9540 C.ar  1 <1>  -0.1500 
 25 O       10.0980     2.7070     1.4820 O.3   1 <1>  -0.3630 
 26 C        9.9290     2.3160    -0.8980 C.ar  1 <1>   0.0830 
 27 C       11.1310     1.8250     1.8620 C.3   1 <1>   0.0400 
 28 O       11.2030     2.6870    -1.1730 O.3   1 <1>  -0.3630 
 29 C       11.5350     4.0380    -0.9390 C.3   1 <1>   0.0400 
 30 H       -0.0660     3.2160     0.4330 H     1 <1>   0.3700 
 31 H        3.2480     3.2020     1.9270 H     1 <1>   0.0800 
 32 H        2.5300    -0.2180     1.5430 H     1 <1>   0.0800 
 33 H        3.2600     0.9500     2.5910 H     1 <1>   0.0800 
 34 H       -1.7730     0.8400    -0.1620 H     1 <1>   0.0800 
 35 H        0.3660     4.0800     2.1170 H     1 <1>   0.0800 
 36 H        1.7730     4.8750     2.7530 H     1 <1>   0.0800 
 37 H        1.2870     3.3370     3.4070 H     1 <1>   0.0800 
 38 H        1.4090     4.1030    -0.2950 H     1 <1>   0.0800 
 39 H        3.0050     3.4210    -0.5100 H     1 <1>   0.0800 
 40 H        2.8020     4.9270     0.3360 H     1 <1>   0.0800 
 41 H       -0.9010     1.8350    -2.2030 H     1 <1>   0.0800 
 42 H       -1.3910     3.4290    -1.6830 H     1 <1>   0.0800 
 43 H       -2.5110     3.6460     0.6990 H     1 <1>   0.0800 
 44 H       -2.7070     2.1850     1.6360 H     1 <1>   0.0800 
 45 H       -3.2240     1.1150    -2.3370 H     1 <1>   0.0800 
 46 H       -3.0230     2.5650    -3.2770 H     1 <1>   0.0800 
 47 H       -4.8360     2.9170     0.5770 H     1 <1>   0.0800 
 48 H       -4.3470     1.3330     0.0500 H     1 <1>   0.0800 
 49 H       -5.0820     2.6350    -1.8820 H     1 <1>   0.0800 
 50 H       -3.9800     3.9200    -1.4810 H     1 <1>   0.0800 
 51 H        7.6510     2.0630     1.5740 H     1 <1>   0.1500 
 52 H        7.2350     1.2040    -2.5840 H     1 <1>   0.1500 
 53 H        9.5750     1.8400    -2.9390 H     1 <1>   0.1500 
 54 H       11.5590     2.1840     2.7810 H     1 <1>   0.0800 
 55 H       11.8820     1.8000     1.0930 H     1 <1>   0.0800 
 56 H       10.7130     0.8440     2.0080 H     1 <1>   0.0800 
 57 H       12.5190     4.2150    -1.3320 H     1 <1>   0.0800 
 58 H       11.5240     4.2310     0.1180 H     1 <1>   0.0800 
 59 H       10.8190     4.6640    -1.4410 H     1 <1>   0.0800 
@<TRIPOS>BOND
  1   1   2  2   
  2   2   3  am  
  3   2   4  am  
  4   3   5  1   
  5   3   6  1   
  6   4   7  1   
  7   4  30  1   
  8   5   8  1   
  9   5   9  1   
 10   5  31  1   
 11   6  10  1   
 12   6  32  1   
 13   6  33  1   
 14   7  11  1   
 15   7  12  1   
 16   7  34  1   
 17   8  35  1   
 18   8  36  1   
 19   8  37  1   
 20   9  38  1   
 21   9  39  1   
 22   9  40  1   
 23  10  13  1   
 24  10  14  2   
 25  11  15  1   
 26  11  41  1   
 27  11  42  1   
 28  12  16  1   
 29  12  43  1   
 30  12  44  1   
 31  13  17  1   
 32  14  18  1   
 33  15  19  1   
 34  15  45  1   
 35  15  46  1   
 36  16  19  1   
 37  16  47  1   
 38  16  48  1   
 39  17  18  2   
 40  18  20  1   
 41  19  49  1   
 42  19  50  1   
 43  20  21  ar  
 44  20  22  ar  
 45  21  23  ar  
 46  21  51  1   
 47  22  24  ar  
 48  22  52  1   
 49  23  25  1   
 50  23  26  ar  
 51  24  26  ar  
 52  24  53  1   
 53  25  27  1   
 54  26  28  1   
 55  27  54  1   
 56  27  55  1   
 57  27  56  1   
 58  28  29  1   
 59  29  57  1   
 60  29  58  1   
 61  29  59  1   
@<TRIPOS>SUBSTRUCTURE
  1 ****  10 GROUP 4 **** **** 0

# MOE 2024.06 (io_trps.svl 2023.06)
