@<TRIPOS>MOLECULE
(2,6-Dimethyl-piperidin-1-yl)-acetic acid
29 29 1 0 0 
SMALL
USER_CHARGES


@<TRIPOS>ATOM
  1 O        1.3500    -0.4960    -0.8160 O.co2 1 <1>  -0.9000 
  2 C        1.5060    -0.1360     0.3600 C.2   1 <1>   0.9060 
  3 O        0.8880    -0.5970     1.3170 O.co2 1 <1>  -0.9000 
  4 C        2.6030     0.9030     0.5920 C.3   1 <1>   0.2370 
  5 N        3.5890     0.9050    -0.5660 N.4   1 <1>  -0.9590 
  6 C        4.5940    -0.1670    -0.3690 C.3   1 <1>   0.4230 
  7 C        4.1560     2.2150    -0.9390 C.3   1 <1>   0.4230 
  8 C        5.9740     0.4020     0.0210 C.3   1 <1>  -0.1600 
  9 C        4.6710    -0.9770    -1.6570 C.3   1 <1>  -0.2400 
 10 C        5.0280     2.7510     0.2090 C.3   1 <1>  -0.1600 
 11 C        3.0520     3.1860    -1.3490 C.3   1 <1>  -0.2400 
 12 C        5.8630     1.6560     0.9040 C.3   1 <1>  -0.1600 
 13 H        3.0980     0.6810     1.5190 H     1 <1>   0.0800 
 14 H        2.1170     1.8550     0.6800 H     1 <1>   0.0800 
 15 H        2.9640     0.5480    -1.3220 H     1 <1>   0.4500 
 16 H        4.2510    -0.8200     0.4180 H     1 <1>   0.0800 
 17 H        4.7940     2.0600    -1.7940 H     1 <1>   0.0800 
 18 H        6.5320     0.6470    -0.8650 H     1 <1>   0.0800 
 19 H        6.5270    -0.3610     0.5400 H     1 <1>   0.0800 
 20 H        4.9760    -0.3650    -2.4860 H     1 <1>   0.0800 
 21 H        3.7120    -1.4180    -1.8710 H     1 <1>   0.0800 
 22 H        5.3810    -1.7760    -1.5400 H     1 <1>   0.0800 
 23 H        4.4140     3.2460     0.9420 H     1 <1>   0.0800 
 24 H        5.6880     3.4950    -0.2000 H     1 <1>   0.0800 
 25 H        2.4370     3.4680    -0.5150 H     1 <1>   0.0800 
 26 H        2.4360     2.7470    -2.1130 H     1 <1>   0.0800 
 27 H        3.4950     4.0800    -1.7490 H     1 <1>   0.0800 
 28 H        6.8440     2.0330     1.1410 H     1 <1>   0.0800 
 29 H        5.3880     1.3840     1.8320 H     1 <1>   0.0800 
@<TRIPOS>BOND
  1   1   2  ar  
  2   2   3  ar  
  3   2   4  1   
  4   4   5  1   
  5   4  13  1   
  6   4  14  1   
  7   5   6  1   
  8   5   7  1   
  9   5  15  1   
 10   6   8  1   
 11   6   9  1   
 12   6  16  1   
 13   7  10  1   
 14   7  11  1   
 15   7  17  1   
 16   8  12  1   
 17   8  18  1   
 18   8  19  1   
 19   9  20  1   
 20   9  21  1   
 21   9  22  1   
 22  10  12  1   
 23  10  23  1   
 24  10  24  1   
 25  11  25  1   
 26  11  26  1   
 27  11  27  1   
 28  12  28  1   
 29  12  29  1   
@<TRIPOS>SUBSTRUCTURE
  1 ****   5 GROUP 4 **** **** 0

# MOE 2024.06 (io_trps.svl 2023.06)
