@<TRIPOS>MOLECULE
8-Cyclopentyl-1,6,7-trimethyl-3-(2-piperidin-1-yl-ethyl)-1H,8H-imidazo[2,1-f]pur
64 68 1 0 0 
SMALL
USER_CHARGES


@<TRIPOS>ATOM
  1 O        0.3350     0.5540    -0.5300 O.2   1 <1>  -0.5730 
  2 C        1.4980     0.8370    -0.7310 C.2   1 <1>   0.6870 
  3 N        1.8310     2.1620    -0.9760 N.am  1 <1>  -0.4240 
  4 N        2.4880    -0.1330    -0.6780 N.am  1 <1>  -0.4400 
  5 C        3.1560     2.5740    -1.0070 C.2   1 <1>   0.7000 
  6 C        0.7290     3.1470    -1.2170 C.3   1 <1>   0.1340 
  7 C        3.8050     0.2750    -0.7740 C.2   1 <1>   0.4220 
  8 C        2.1410    -1.5740    -0.4840 C.3   1 <1>   0.0540 
  9 O        3.4090     3.7650    -1.0700 O.2   1 <1>  -0.5730 
 10 C        4.1720     1.5720    -0.9300 C.2   1 <1>   0.2720 
 11 C        0.0750     3.5570     0.1140 C.3   1 <1>   0.3380 
 12 N        4.9230    -0.5020    -0.7130 N.pl3 1 <1>  -0.7030 
 13 N        5.5770     1.5800    -0.9630 N.pl3 1 <1>  -0.6320 
 14 N       -1.0910     4.4740    -0.0700 N.4   1 <1>  -0.9600 
 15 C        5.9720     0.3190    -0.8290 C.cat 1 <1>   1.0690 
 16 C        6.7180     2.3470    -1.0590 C.2   1 <1>   0.2360 
 17 C       -0.6930     5.8240    -0.5740 C.3   1 <1>   0.3380 
 18 C       -1.8510     4.5830     1.2080 C.3   1 <1>   0.3380 
 19 N        7.3050     0.2080    -0.8400 N.pl3 1 <1>  -0.5710 
 20 C        7.7790     1.5070    -0.9810 C.2   1 <1>   0.1590 
 21 C        6.6270     3.8520    -1.2160 C.3   1 <1>  -0.1080 
 22 C       -1.9450     6.6600    -0.8450 C.3   1 <1>  -0.1660 
 23 C       -3.1300     5.3890     0.9790 C.3   1 <1>  -0.1660 
 24 C        8.1440    -1.0130    -0.6840 C.3   1 <1>   0.2420 
 25 C        9.2660     1.8220    -1.0240 C.3   1 <1>  -0.1080 
 26 C       -2.8290     6.7780     0.4020 C.3   1 <1>  -0.1660 
 27 C        7.5270    -2.2420    -1.3620 C.3   1 <1>  -0.1660 
 28 C        8.2400    -1.3930     0.7920 C.3   1 <1>  -0.1660 
 29 C        6.8500    -3.0810    -0.2660 C.3   1 <1>  -0.1660 
 30 C        7.0750    -2.3440     1.0570 C.3   1 <1>  -0.1660 
 31 H       -0.0110     2.6890    -1.8520 H     1 <1>   0.0740 
 32 H        1.1130     4.0130    -1.7260 H     1 <1>   0.0740 
 33 H        1.1060    -1.7520    -0.7260 H     1 <1>   0.0740 
 34 H        2.3050    -1.8530     0.5430 H     1 <1>   0.0740 
 35 H        2.7430    -2.1930    -1.1250 H     1 <1>   0.0740 
 36 H        0.8110     4.0380     0.7380 H     1 <1>   0.0740 
 37 H       -0.2620     2.6620     0.6110 H     1 <1>   0.0740 
 38 H        5.0170    -1.5050    -0.5670 H     1 <1>   0.4460 
 39 H       -1.7440     4.0660    -0.7540 H     1 <1>   0.4460 
 40 H       -0.1250     5.7320    -1.4850 H     1 <1>   0.0740 
 41 H       -0.0820     6.3220     0.1610 H     1 <1>   0.0740 
 42 H       -1.2450     5.0740     1.9530 H     1 <1>   0.0740 
 43 H       -2.1080     3.6010     1.5710 H     1 <1>   0.0740 
 44 H        6.0800     4.0960    -2.1090 H     1 <1>   0.0740 
 45 H        7.6040     4.2940    -1.2850 H     1 <1>   0.0740 
 46 H        6.1180     4.2810    -0.3720 H     1 <1>   0.0740 
 47 H       -2.5040     6.2170    -1.6520 H     1 <1>   0.0740 
 48 H       -1.6480     7.6440    -1.1640 H     1 <1>   0.0740 
 49 H       -3.6480     5.4990     1.9160 H     1 <1>   0.0740 
 50 H       -3.7810     4.8470     0.3150 H     1 <1>   0.0740 
 51 H        9.1260    -0.8290    -1.0880 H     1 <1>   0.0740 
 52 H        9.7450     1.4690    -0.1280 H     1 <1>   0.0740 
 53 H        9.4340     2.8800    -1.1000 H     1 <1>   0.0740 
 54 H        9.7220     1.3470    -1.8740 H     1 <1>   0.0740 
 55 H       -3.7500     7.2790     0.1530 H     1 <1>   0.0740 
 56 H       -2.3240     7.3730     1.1450 H     1 <1>   0.0740 
 57 H        8.3280    -2.8290    -1.7790 H     1 <1>   0.0740 
 58 H        6.8630    -1.9880    -2.1680 H     1 <1>   0.0740 
 59 H        8.2400    -0.5400     1.4480 H     1 <1>   0.0740 
 60 H        9.1590    -1.9340     0.9420 H     1 <1>   0.0740 
 61 H        7.3320    -4.0440    -0.2180 H     1 <1>   0.0740 
 62 H        5.8050    -3.2490    -0.4600 H     1 <1>   0.0740 
 63 H        6.2000    -1.7860     1.3380 H     1 <1>   0.0740 
 64 H        7.3060    -3.0310     1.8550 H     1 <1>   0.0740 
@<TRIPOS>BOND
  1   1   2  2   
  2   2   3  am  
  3   2   4  am  
  4   3   5  am  
  5   3   6  1   
  6   4   7  1   
  7   4   8  1   
  8   5   9  2   
  9   5  10  1   
 10   6  11  1   
 11   6  31  1   
 12   6  32  1   
 13   7  10  2   
 14   7  12  1   
 15   8  33  1   
 16   8  34  1   
 17   8  35  1   
 18  10  13  1   
 19  11  14  1   
 20  11  36  1   
 21  11  37  1   
 22  12  15  ar  
 23  12  38  1   
 24  13  15  ar  
 25  13  16  1   
 26  14  17  1   
 27  14  18  1   
 28  14  39  1   
 29  15  19  ar  
 30  16  20  2   
 31  16  21  1   
 32  17  22  1   
 33  17  40  1   
 34  17  41  1   
 35  18  23  1   
 36  18  42  1   
 37  18  43  1   
 38  19  20  1   
 39  19  24  1   
 40  20  25  1   
 41  21  44  1   
 42  21  45  1   
 43  21  46  1   
 44  22  26  1   
 45  22  47  1   
 46  22  48  1   
 47  23  26  1   
 48  23  49  1   
 49  23  50  1   
 50  24  27  1   
 51  24  28  1   
 52  24  51  1   
 53  25  52  1   
 54  25  53  1   
 55  25  54  1   
 56  26  55  1   
 57  26  56  1   
 58  27  29  1   
 59  27  57  1   
 60  27  58  1   
 61  28  30  1   
 62  28  59  1   
 63  28  60  1   
 64  29  30  1   
 65  29  61  1   
 66  29  62  1   
 67  30  63  1   
 68  30  64  1   
@<TRIPOS>SUBSTRUCTURE
  1 ****  10 GROUP 4 **** **** 0

# MOE 2024.06 (io_trps.svl 2023.06)
