@<TRIPOS>MOLECULE
5-(2,5-Dimethoxy-phenyl)-2-methylsulfanyl-5,8-dihydro-3H,6H-pyrido[2,3-d]pyrimid
41 43 1 0 0 
SMALL
USER_CHARGES


@<TRIPOS>ATOM
  1 S        1.5440    -0.4810     1.5430 S.3   1 <1>  -0.3710 
  2 C        2.3880     0.8130     0.6730 C.2   1 <1>   0.6410 
  3 C        0.1190     0.3720     2.3590 C.3   1 <1>  -0.0100 
  4 N        3.4690     0.3940    -0.0230 N.pl3 1 <1>  -0.5500 
  5 N        1.9580     2.0130     0.7390 N.2   1 <1>  -0.6610 
  6 C        4.2300     1.2950    -0.6920 C.2   1 <1>   0.2090 
  7 C        2.6690     2.9470     0.0360 C.2   1 <1>   0.7670 
  8 N        5.3010     0.8480    -1.4210 N.am  1 <1>  -0.5390 
  9 C        3.8720     2.6050    -0.6340 C.2   1 <1>  -0.1240 
 10 O        2.1850     4.0700    -0.0210 O.2   1 <1>  -0.5700 
 11 C        6.1720     1.6720    -2.0510 C.2   1 <1>   0.5690 
 12 C        4.7450     3.6680    -1.3140 C.3   1 <1>   0.2020 
 13 O        6.9690     1.2400    -2.8400 O.2   1 <1>  -0.5700 
 14 C        6.1430     3.1470    -1.7170 C.3   1 <1>  -0.0990 
 15 C        4.9420     4.9310    -0.4660 C.ar  1 <1>  -0.1430 
 16 C        5.3730     4.8660     0.8590 C.ar  1 <1>   0.0830 
 17 C        4.6870     6.1730    -1.0310 C.ar  1 <1>  -0.1500 
 18 O        5.6100     3.6540     1.4220 O.3   1 <1>  -0.3630 
 19 C        5.5640     6.0330     1.5910 C.ar  1 <1>  -0.1500 
 20 C        4.8630     7.3410    -0.2940 C.ar  1 <1>   0.0830 
 21 C        5.0810     3.4050     2.7070 C.3   1 <1>   0.0400 
 22 C        5.3090     7.2620     1.0130 C.ar  1 <1>  -0.1500 
 23 O        4.6200     8.5850    -0.7830 O.3   1 <1>  -0.3620 
 24 C        3.8860     8.7610    -1.9730 C.3   1 <1>   0.0400 
 25 H       -0.4420    -0.3660     2.9030 H     1 <1>   0.0800 
 26 H       -0.4820     0.8230     1.5880 H     1 <1>   0.0800 
 27 H        0.5160     1.1210     3.0200 H     1 <1>   0.0800 
 28 H        3.6900    -0.6000     0.0140 H     1 <1>   0.4000 
 29 H        5.4370    -0.1430    -1.6150 H     1 <1>   0.3700 
 30 H        4.2270     3.9380    -2.2180 H     1 <1>   0.0800 
 31 H        6.5110     3.7110    -2.5540 H     1 <1>   0.0800 
 32 H        6.8330     3.2890    -0.9060 H     1 <1>   0.0800 
 33 H        4.3480     6.2260    -2.0470 H     1 <1>   0.1500 
 34 H        5.9150     5.9910     2.6040 H     1 <1>   0.1500 
 35 H        5.6750     3.9200     3.4400 H     1 <1>   0.0800 
 36 H        5.1190     2.3460     2.8860 H     1 <1>   0.0800 
 37 H        4.0590     3.7450     2.7370 H     1 <1>   0.0800 
 38 H        5.4510     8.1690     1.5730 H     1 <1>   0.1500 
 39 H        3.7050     9.8130    -2.1010 H     1 <1>   0.0800 
 40 H        2.9510     8.2370    -1.8870 H     1 <1>   0.0800 
 41 H        4.4650     8.3880    -2.7990 H     1 <1>   0.0800 
@<TRIPOS>BOND
  1   1   2  1   
  2   1   3  1   
  3   2   4  1   
  4   2   5  2   
  5   3  25  1   
  6   3  26  1   
  7   3  27  1   
  8   4   6  1   
  9   4  28  1   
 10   5   7  1   
 11   6   8  1   
 12   6   9  2   
 13   7   9  1   
 14   7  10  2   
 15   8  11  am  
 16   8  29  1   
 17   9  12  1   
 18  11  13  2   
 19  11  14  1   
 20  12  14  1   
 21  12  15  1   
 22  12  30  1   
 23  14  31  1   
 24  14  32  1   
 25  15  16  ar  
 26  15  17  ar  
 27  16  18  1   
 28  16  19  ar  
 29  17  20  ar  
 30  17  33  1   
 31  18  21  1   
 32  19  22  ar  
 33  19  34  1   
 34  20  22  ar  
 35  20  23  1   
 36  21  35  1   
 37  21  36  1   
 38  21  37  1   
 39  22  38  1   
 40  23  24  1   
 41  24  39  1   
 42  24  40  1   
 43  24  41  1   
@<TRIPOS>SUBSTRUCTURE
  1 ****   9 GROUP 4 **** **** 0

# MOE 2024.06 (io_trps.svl 2023.06)
