@<TRIPOS>MOLECULE
N-Cyclohexyl-2-(2-methoxy-phenoxy)-N-(3-m-tolyl-[1,2,4]oxadiazol-5-ylmethyl)-ace
61 64 1 0 0 
SMALL
USER_CHARGES


@<TRIPOS>ATOM
  1 O       -0.2870     1.8350    -1.9430 O.2   1 <1>  -0.5700 
  2 C       -0.0650     2.8590    -1.3360 C.2   1 <1>   0.5690 
  3 N        1.0080     2.9530    -0.4770 N.am  1 <1>  -0.6600 
  4 C       -0.9920     4.0430    -1.6270 C.3   1 <1>   0.1810 
  5 C        1.2310     4.1500     0.4010 C.3   1 <1>   0.2200 
  6 C        1.9600     1.7910    -0.3710 C.3   1 <1>   0.3200 
  7 O       -1.8250     4.3840    -0.5280 O.3   1 <1>  -0.3630 
  8 C        2.1910     5.1500    -0.2600 C.3   1 <1>  -0.1600 
  9 C        1.7060     3.7870     1.8170 C.3   1 <1>  -0.1600 
 10 C        3.3610     2.1230    -0.8580 C.2   1 <1>   0.2980 
 11 C       -2.8990     3.5860    -0.3200 C.ar  1 <1>   0.0820 
 12 C        2.3340     6.4160     0.5980 C.3   1 <1>  -0.1600 
 13 C        1.8420     5.0500     2.6810 C.3   1 <1>  -0.1600 
 14 O        3.5230     2.4680    -2.1080 O.3   1 <1>  -0.0190 
 15 N        4.4210     2.1030    -0.1560 N.2   1 <1>  -0.5650 
 16 C       -2.8510     2.5400     0.6020 C.ar  1 <1>   0.0820 
 17 C       -4.0590     3.8340    -1.0360 C.ar  1 <1>  -0.1500 
 18 C        2.7850     6.0690     2.0240 C.3   1 <1>  -0.1600 
 19 N        4.7940     2.6980    -2.2090 N.2   1 <1>  -0.4100 
 20 C        5.3300     2.4860    -1.0590 C.2   1 <1>   0.4620 
 21 O       -1.7050     2.3160     1.2990 O.3   1 <1>  -0.3630 
 22 C       -3.9780     1.7490     0.7910 C.ar  1 <1>  -0.1500 
 23 C       -5.1750     3.0360    -0.8460 C.ar  1 <1>  -0.1500 
 24 C        6.7400     2.6380    -0.7360 C.ar  1 <1>   0.0540 
 25 C       -1.2600     0.9850     1.4340 C.3   1 <1>   0.0400 
 26 C       -5.1330     1.9940     0.0650 C.ar  1 <1>  -0.1500 
 27 C        7.6730     2.9840    -1.7150 C.ar  1 <1>  -0.1500 
 28 C        7.2200     2.4470     0.5610 C.ar  1 <1>  -0.1500 
 29 C        9.0190     3.1340    -1.4250 C.ar  1 <1>  -0.1440 
 30 C        8.5610     2.5950     0.8640 C.ar  1 <1>  -0.1500 
 31 C        9.4610     2.9390    -0.1280 C.ar  1 <1>  -0.1500 
 32 C       10.0100     3.5120    -2.5110 C.3   1 <1>  -0.0970 
 33 H       -1.6190     3.8130    -2.4680 H     1 <1>   0.0800 
 34 H       -0.4040     4.9080    -1.8660 H     1 <1>   0.0800 
 35 H        0.2910     4.6540     0.5350 H     1 <1>   0.0800 
 36 H        1.6100     0.9540    -0.9480 H     1 <1>   0.0800 
 37 H        2.0100     1.4570     0.6480 H     1 <1>   0.0800 
 38 H        1.8280     5.4210    -1.2340 H     1 <1>   0.0800 
 39 H        3.1650     4.7120    -0.3730 H     1 <1>   0.0800 
 40 H        2.6660     3.3060     1.7820 H     1 <1>   0.0800 
 41 H        0.9930     3.1250     2.2760 H     1 <1>   0.0800 
 42 H        1.3880     6.9290     0.6390 H     1 <1>   0.0800 
 43 H        3.0500     7.0790     0.1450 H     1 <1>   0.0800 
 44 H        2.2200     4.7840     3.6530 H     1 <1>   0.0800 
 45 H        0.8710     5.4970     2.8160 H     1 <1>   0.0800 
 46 H       -4.0880     4.6490    -1.7350 H     1 <1>   0.1500 
 47 H        2.8190     6.9650     2.6190 H     1 <1>   0.0800 
 48 H        3.7810     5.6600     1.9900 H     1 <1>   0.0800 
 49 H       -3.9680     0.9470     1.5040 H     1 <1>   0.1500 
 50 H       -6.0740     3.2260    -1.4050 H     1 <1>   0.1500 
 51 H       -0.2510     1.0070     1.8020 H     1 <1>   0.0800 
 52 H       -1.2890     0.5100     0.4690 H     1 <1>   0.0800 
 53 H       -1.8910     0.4700     2.1350 H     1 <1>   0.0800 
 54 H       -6.0020     1.3770     0.2140 H     1 <1>   0.1500 
 55 H        7.3330     3.1390    -2.7240 H     1 <1>   0.1500 
 56 H        6.5340     2.1790     1.3450 H     1 <1>   0.1500 
 57 H        8.9060     2.4430     1.8720 H     1 <1>   0.1500 
 58 H       10.5030     3.0540     0.1130 H     1 <1>   0.1500 
 59 H        9.5700     3.4030    -3.4860 H     1 <1>   0.0800 
 60 H       10.8770     2.8790    -2.4570 H     1 <1>   0.0800 
 61 H       10.3170     4.5350    -2.3830 H     1 <1>   0.0800 
@<TRIPOS>BOND
  1   1   2  2   
  2   2   3  am  
  3   2   4  1   
  4   3   5  1   
  5   3   6  1   
  6   4   7  1   
  7   4  33  1   
  8   4  34  1   
  9   5   8  1   
 10   5   9  1   
 11   5  35  1   
 12   6  10  1   
 13   6  36  1   
 14   6  37  1   
 15   7  11  1   
 16   8  12  1   
 17   8  38  1   
 18   8  39  1   
 19   9  13  1   
 20   9  40  1   
 21   9  41  1   
 22  10  14  1   
 23  10  15  2   
 24  11  16  ar  
 25  11  17  ar  
 26  12  18  1   
 27  12  42  1   
 28  12  43  1   
 29  13  18  1   
 30  13  44  1   
 31  13  45  1   
 32  14  19  1   
 33  15  20  1   
 34  16  21  1   
 35  16  22  ar  
 36  17  23  ar  
 37  17  46  1   
 38  18  47  1   
 39  18  48  1   
 40  19  20  2   
 41  20  24  1   
 42  21  25  1   
 43  22  26  ar  
 44  22  49  1   
 45  23  26  ar  
 46  23  50  1   
 47  24  27  ar  
 48  24  28  ar  
 49  25  51  1   
 50  25  52  1   
 51  25  53  1   
 52  26  54  1   
 53  27  29  ar  
 54  27  55  1   
 55  28  30  ar  
 56  28  56  1   
 57  29  31  ar  
 58  29  32  1   
 59  30  31  ar  
 60  30  57  1   
 61  31  58  1   
 62  32  59  1   
 63  32  60  1   
 64  32  61  1   
@<TRIPOS>SUBSTRUCTURE
  1 ****   3 GROUP 4 **** **** 0

# MOE 2024.06 (io_trps.svl 2023.06)
