@<TRIPOS>MOLECULE
3-Cyclohexyl-1-[3-(3,4-dimethoxy-phenyl)-[1,2,4]oxadiazol-5-ylmethyl]-1-methyl-u
53 55 1 0 0 
SMALL
USER_CHARGES


@<TRIPOS>ATOM
  1 O        0.2090     1.4110     1.8740 O.2   1 <1>  -0.5700 
  2 C        0.5320     1.4230     0.7010 C.2   1 <1>   0.6900 
  3 N        1.8290     1.1920     0.3370 N.am  1 <1>  -0.6600 
  4 N       -0.3870     1.6800    -0.2580 N.am  1 <1>  -0.7300 
  5 C        2.9040     1.1790     1.3790 C.3   1 <1>   0.3200 
  6 C        2.2600     0.8370    -1.0460 C.3   1 <1>   0.0600 
  7 C       -1.8070     1.9770    -0.0240 C.3   1 <1>   0.2200 
  8 C        4.0990     2.0320     0.9770 C.2   1 <1>   0.2980 
  9 C       -2.6550     1.0800    -0.9320 C.3   1 <1>  -0.1600 
 10 C       -2.0590     3.4600    -0.3150 C.3   1 <1>  -0.1600 
 11 O        3.9460     3.3290     0.9100 O.3   1 <1>  -0.0190 
 12 N        5.2600     1.6050     0.6830 N.2   1 <1>  -0.5650 
 13 C       -4.1480     1.4200    -0.8100 C.3   1 <1>  -0.1600 
 14 C       -3.5510     3.8050    -0.1930 C.3   1 <1>  -0.1600 
 15 N        5.1100     3.7650     0.5390 N.2   1 <1>  -0.4100 
 16 C        5.8900     2.7510     0.4040 C.2   1 <1>   0.4620 
 17 C       -4.4040     2.9060    -1.0980 C.3   1 <1>  -0.1600 
 18 C        7.2840     2.8040    -0.0030 C.ar  1 <1>   0.0540 
 19 C        8.0670     1.6540    -0.1030 C.ar  1 <1>  -0.1500 
 20 C        7.9020     4.0150    -0.3120 C.ar  1 <1>  -0.1500 
 21 C        9.3950     1.6910    -0.4890 C.ar  1 <1>   0.0830 
 22 C        9.2250     4.0770    -0.7100 C.ar  1 <1>  -0.1500 
 23 O       10.0180     0.4790    -0.5230 O.3   1 <1>  -0.3630 
 24 C        9.9920     2.9200    -0.8150 C.ar  1 <1>   0.0830 
 25 C       11.3790     0.3530    -0.1750 C.3   1 <1>   0.0400 
 26 O       11.2870     2.9610    -1.2400 O.3   1 <1>  -0.3630 
 27 C       11.8740     4.1380    -1.7490 C.3   1 <1>   0.0400 
 28 H       -0.0480     1.8520    -1.1990 H     1 <1>   0.3700 
 29 H        3.2310     0.1660     1.5270 H     1 <1>   0.0800 
 30 H        2.5310     1.5460     2.3180 H     1 <1>   0.0800 
 31 H        1.4380     0.4260    -1.6070 H     1 <1>   0.0800 
 32 H        3.0440     0.1010    -1.0100 H     1 <1>   0.0800 
 33 H        2.6290     1.7160    -1.5470 H     1 <1>   0.0800 
 34 H       -2.0580     1.7720     1.0040 H     1 <1>   0.0800 
 35 H       -2.5010     0.0520    -0.6560 H     1 <1>   0.0800 
 36 H       -2.3490     1.2100    -1.9550 H     1 <1>   0.0800 
 37 H       -1.7260     3.6950    -1.3100 H     1 <1>   0.0800 
 38 H       -1.4980     4.0570     0.3840 H     1 <1>   0.0800 
 39 H       -4.4850     1.1870     0.1860 H     1 <1>   0.0800 
 40 H       -4.7130     0.8160    -1.4980 H     1 <1>   0.0800 
 41 H       -3.7060     4.8370    -0.4570 H     1 <1>   0.0800 
 42 H       -3.8620     3.6770     0.8310 H     1 <1>   0.0800 
 43 H       -5.4460     3.1270    -0.9450 H     1 <1>   0.0800 
 44 H       -4.1720     3.1140    -2.1280 H     1 <1>   0.0800 
 45 H        7.6350     0.6980     0.1280 H     1 <1>   0.1500 
 46 H        7.3340     4.9270    -0.2420 H     1 <1>   0.1500 
 47 H        9.6360     5.0420    -0.9360 H     1 <1>   0.1500 
 48 H       11.5600    -0.6690     0.1030 H     1 <1>   0.0800 
 49 H       11.5940     1.0060     0.6520 H     1 <1>   0.0800 
 50 H       11.9800     0.6080    -1.0290 H     1 <1>   0.0800 
 51 H       12.8660     3.8960    -2.0860 H     1 <1>   0.0800 
 52 H       11.9240     4.8720    -0.9650 H     1 <1>   0.0800 
 53 H       11.2850     4.4930    -2.5770 H     1 <1>   0.0800 
@<TRIPOS>BOND
  1   1   2  2   
  2   2   3  am  
  3   2   4  am  
  4   3   5  1   
  5   3   6  1   
  6   4   7  1   
  7   4  28  1   
  8   5   8  1   
  9   5  29  1   
 10   5  30  1   
 11   6  31  1   
 12   6  32  1   
 13   6  33  1   
 14   7   9  1   
 15   7  10  1   
 16   7  34  1   
 17   8  11  1   
 18   8  12  2   
 19   9  13  1   
 20   9  35  1   
 21   9  36  1   
 22  10  14  1   
 23  10  37  1   
 24  10  38  1   
 25  11  15  1   
 26  12  16  1   
 27  13  17  1   
 28  13  39  1   
 29  13  40  1   
 30  14  17  1   
 31  14  41  1   
 32  14  42  1   
 33  15  16  2   
 34  16  18  1   
 35  17  43  1   
 36  17  44  1   
 37  18  19  ar  
 38  18  20  ar  
 39  19  21  ar  
 40  19  45  1   
 41  20  22  ar  
 42  20  46  1   
 43  21  23  1   
 44  21  24  ar  
 45  22  24  ar  
 46  22  47  1   
 47  23  25  1   
 48  24  26  1   
 49  25  48  1   
 50  25  49  1   
 51  25  50  1   
 52  26  27  1   
 53  27  51  1   
 54  27  52  1   
 55  27  53  1   
@<TRIPOS>SUBSTRUCTURE
  1 ****   8 GROUP 4 **** **** 0

# MOE 2024.06 (io_trps.svl 2023.06)
