@<TRIPOS>MOLECULE
7-[3-(3-Ethyl-phenoxy)-2-hydroxy-propyl]-1,3-dimethyl-8-piperazin-1-yl-3,7-dihyd
64 67 1 0 0 
SMALL
USER_CHARGES


@<TRIPOS>ATOM
  1 O        4.3300     3.6750     3.5130 O.2   1 <1>  -0.5740 
  2 C        4.7800     3.4090     2.4170 C.2   1 <1>   0.6870 
  3 N        4.1870     3.9340     1.2750 N.am  1 <1>  -0.4240 
  4 N        5.8880     2.5830     2.3080 N.am  1 <1>  -0.4400 
  5 C        4.7320     3.7080     0.0200 C.2   1 <1>   0.7000 
  6 C        2.9860     4.8140     1.4230 C.3   1 <1>   0.0540 
  7 C        6.4120     2.3580     1.0490 C.2   1 <1>   0.4220 
  8 C        6.5170     2.0390     3.5450 C.3   1 <1>   0.0540 
  9 O        4.2770     4.2700    -0.9620 O.2   1 <1>  -0.5740 
 10 C        5.8700     2.8410    -0.0880 C.2   1 <1>   0.2720 
 11 N        7.5290     1.6560     0.7270 N.pl3 1 <1>  -0.7030 
 12 N        6.6760     2.3720    -1.1560 N.pl3 1 <1>  -0.7670 
 13 C        7.6800     1.6810    -0.5970 C.cat 1 <1>   1.0690 
 14 C        6.5480     2.9240    -2.5500 C.3   1 <1>   0.3490 
 15 N        8.7140     1.0580    -1.2120 N.pl3 1 <1>  -0.5950 
 16 C        7.5390     4.0680    -2.8890 C.3   1 <1>   0.1950 
 17 C       10.1040     1.1150    -0.6590 C.3   1 <1>   0.1620 
 18 C        8.5790     0.2300    -2.4570 C.3   1 <1>   0.1620 
 19 O        8.8120     3.5450    -3.1430 O.3   1 <1>  -0.6830 
 20 C        7.6360     5.1500    -1.7940 C.3   1 <1>   0.1140 
 21 C       11.1140     1.5350    -1.7490 C.3   1 <1>   0.3380 
 22 C        9.6390     0.5800    -3.5290 C.3   1 <1>   0.3380 
 23 O        8.5020     4.7010    -0.7610 O.3   1 <1>  -0.3670 
 24 N       11.0280     0.6550    -2.9620 N.4   1 <1>  -0.9080 
 25 C        8.3390     4.9920     0.5520 C.ar  1 <1>   0.0760 
 26 C        9.3080     4.4900     1.4050 C.ar  1 <1>  -0.1560 
 27 C        7.2700     5.7130     1.0770 C.ar  1 <1>  -0.1560 
 28 C        9.2030     4.6480     2.7760 C.ar  1 <1>  -0.1490 
 29 C        7.1580     5.8680     2.4470 C.ar  1 <1>  -0.1560 
 30 C        8.1140     5.3310     3.2920 C.ar  1 <1>  -0.1560 
 31 C       10.2910     4.1090     3.6950 C.3   1 <1>  -0.0230 
 32 C       10.2710     2.5800     3.7670 C.3   1 <1>  -0.2450 
 33 H        2.3510     4.4460     2.2110 H     1 <1>   0.0740 
 34 H        2.4120     4.8390     0.5140 H     1 <1>   0.0740 
 35 H        3.3000     5.8130     1.6690 H     1 <1>   0.0740 
 36 H        5.7530     1.6770     4.2120 H     1 <1>   0.0740 
 37 H        7.0590     2.8240     4.0430 H     1 <1>   0.0740 
 38 H        7.1840     1.2280     3.3210 H     1 <1>   0.0740 
 39 H        8.1460     1.2130     1.3970 H     1 <1>   0.4460 
 40 H        5.5510     3.2970    -2.6910 H     1 <1>   0.0740 
 41 H        6.6640     2.1410    -3.2750 H     1 <1>   0.0740 
 42 H        7.2030     4.5340    -3.8010 H     1 <1>   0.0740 
 43 H       10.3770     0.1500    -0.2660 H     1 <1>   0.0740 
 44 H       10.1550     1.8280     0.1460 H     1 <1>   0.0740 
 45 H        7.5940     0.3270    -2.8760 H     1 <1>   0.0740 
 46 H        8.6970    -0.8070    -2.1900 H     1 <1>   0.0740 
 47 H        9.4330     4.3000    -3.2470 H     1 <1>   0.3960 
 48 H        6.6550     5.3530    -1.4110 H     1 <1>   0.0740 
 49 H        8.0430     6.0630    -2.1910 H     1 <1>   0.0740 
 50 H       12.1130     1.5020    -1.3440 H     1 <1>   0.0740 
 51 H       10.9080     2.5560    -2.0310 H     1 <1>   0.0740 
 52 H        9.3840     1.5260    -3.9760 H     1 <1>   0.0740 
 53 H        9.6070    -0.1590    -4.3130 H     1 <1>   0.0740 
 54 H       11.3680    -0.2900    -2.7380 H     1 <1>   0.4460 
 55 H       11.6630     1.0200    -3.6870 H     1 <1>   0.4460 
 56 H       10.1590     3.9860     0.9930 H     1 <1>   0.1440 
 57 H        6.5210     6.1680     0.4590 H     1 <1>   0.1440 
 58 H        6.3290     6.4140     2.8650 H     1 <1>   0.1440 
 59 H        8.0110     5.4660     4.3560 H     1 <1>   0.1440 
 60 H       10.1670     4.5130     4.6850 H     1 <1>   0.0740 
 61 H       11.2490     4.4400     3.3340 H     1 <1>   0.0740 
 62 H        9.3440     2.2420     4.1920 H     1 <1>   0.0740 
 63 H       11.0730     2.2400     4.3980 H     1 <1>   0.0740 
 64 H       10.3970     2.1520     2.7910 H     1 <1>   0.0740 
@<TRIPOS>BOND
  1   1   2  2   
  2   2   3  am  
  3   2   4  am  
  4   3   5  am  
  5   3   6  1   
  6   4   7  1   
  7   4   8  1   
  8   5   9  2   
  9   5  10  1   
 10   6  33  1   
 11   6  34  1   
 12   6  35  1   
 13   7  10  2   
 14   7  11  1   
 15   8  36  1   
 16   8  37  1   
 17   8  38  1   
 18  10  12  1   
 19  11  13  ar  
 20  11  39  1   
 21  12  13  ar  
 22  12  14  1   
 23  13  15  ar  
 24  14  16  1   
 25  14  40  1   
 26  14  41  1   
 27  15  17  1   
 28  15  18  1   
 29  16  19  1   
 30  16  20  1   
 31  16  42  1   
 32  17  21  1   
 33  17  43  1   
 34  17  44  1   
 35  18  22  1   
 36  18  45  1   
 37  18  46  1   
 38  19  47  1   
 39  20  23  1   
 40  20  48  1   
 41  20  49  1   
 42  21  24  1   
 43  21  50  1   
 44  21  51  1   
 45  22  24  1   
 46  22  52  1   
 47  22  53  1   
 48  23  25  1   
 49  24  54  1   
 50  24  55  1   
 51  25  26  ar  
 52  25  27  ar  
 53  26  28  ar  
 54  26  56  1   
 55  27  29  ar  
 56  27  57  1   
 57  28  30  ar  
 58  28  31  1   
 59  29  30  ar  
 60  29  58  1   
 61  30  59  1   
 62  31  32  1   
 63  31  60  1   
 64  31  61  1   
 65  32  62  1   
 66  32  63  1   
 67  32  64  1   
@<TRIPOS>SUBSTRUCTURE
  1 ****   7 GROUP 4 **** **** 0

# MOE 2024.06 (io_trps.svl 2023.06)
