@<TRIPOS>MOLECULE
N-Adamantan-1-yl-2-(benzooxazol-2-ylsulfanyl)-acetamide
46 50 1 0 0 
SMALL
USER_CHARGES


@<TRIPOS>ATOM
  1 S        0.1900     0.6000     0.1430 S.3   1 <1>  -0.2860 
  2 C       -1.5820     0.4100     0.1870 C.2   1 <1>   0.5340 
  3 C        0.8200    -1.1490     0.2100 C.3   1 <1>   0.1310 
  4 O       -2.0640    -0.8180     0.2520 O.3   1 <1>  -0.2800 
  5 N       -2.4200     1.3730     0.1600 N.2   1 <1>  -0.5650 
  6 C        2.3400    -1.2110     0.1820 C.2   1 <1>   0.5690 
  7 C       -3.3720    -0.6410     0.2700 C.ar  1 <1>   0.1400 
  8 C       -3.6090     0.7140     0.2130 C.ar  1 <1>   0.2270 
  9 O        2.8540    -2.3020     0.2220 O.2   1 <1>  -0.5700 
 10 N        3.0580    -0.0570     0.1140 N.am  1 <1>  -0.7300 
 11 C       -4.3980    -1.5730     0.3330 C.ar  1 <1>  -0.1500 
 12 C       -4.9170     1.1860     0.2180 C.ar  1 <1>  -0.1500 
 13 C        4.5170     0.1280     0.0760 C.3   1 <1>   0.3000 
 14 C       -5.6980    -1.1000     0.3380 C.ar  1 <1>  -0.1500 
 15 C       -5.9540     0.2740     0.2800 C.ar  1 <1>  -0.1500 
 16 C        5.1740    -0.4340     1.3520 C.3   1 <1>  -0.1600 
 17 C        4.7910     1.6420     0.0010 C.3   1 <1>  -0.1600 
 18 C        5.1230    -0.5510    -1.1670 C.3   1 <1>  -0.1600 
 19 C        6.6940    -0.1850     1.3140 C.3   1 <1>  -0.0800 
 20 C        6.3080     1.9100    -0.0420 C.3   1 <1>  -0.0800 
 21 C        6.6440    -0.3020    -1.2130 C.3   1 <1>  -0.0800 
 22 C        6.9580     1.3310     1.2290 C.3   1 <1>  -0.1600 
 23 C        7.2870    -0.8710     0.0670 C.3   1 <1>  -0.1600 
 24 C        6.9080     1.2150    -1.2790 C.3   1 <1>  -0.1600 
 25 H        0.4160    -1.6680    -0.6390 H     1 <1>   0.0800 
 26 H        0.4510    -1.5880     1.1170 H     1 <1>   0.0800 
 27 H        2.5360     0.8210     0.0840 H     1 <1>   0.3700 
 28 H       -4.1740    -2.6230     0.3770 H     1 <1>   0.1500 
 29 H       -5.0920     2.2460     0.1730 H     1 <1>   0.1500 
 30 H       -6.5240    -1.7890     0.3850 H     1 <1>   0.1500 
 31 H       -6.9740     0.6200     0.2850 H     1 <1>   0.1500 
 32 H        4.9950    -1.4920     1.4220 H     1 <1>   0.0800 
 33 H        4.7500     0.0370     2.2200 H     1 <1>   0.0800 
 34 H        4.3690     2.1320     0.8600 H     1 <1>   0.0800 
 35 H        4.3350     2.0520    -0.8830 H     1 <1>   0.0800 
 36 H        4.6640    -0.1610    -2.0570 H     1 <1>   0.0800 
 37 H        4.9440    -1.6100    -1.1320 H     1 <1>   0.0800 
 38 H        7.1510    -0.5860     2.2020 H     1 <1>   0.0800 
 39 H        6.4920     2.9690    -0.0950 H     1 <1>   0.0800 
 40 H        7.0650    -0.7840    -2.0780 H     1 <1>   0.0800 
 41 H        8.0180     1.5140     1.2120 H     1 <1>   0.0800 
 42 H        6.5570     1.8190     2.1000 H     1 <1>   0.0800 
 43 H        7.1130    -1.9320     0.1200 H     1 <1>   0.0800 
 44 H        8.3520    -0.7170     0.0390 H     1 <1>   0.0800 
 45 H        6.4720     1.6220    -2.1750 H     1 <1>   0.0800 
 46 H        7.9670     1.3970    -1.3210 H     1 <1>   0.0800 
@<TRIPOS>BOND
  1   1   2  1   
  2   1   3  1   
  3   2   4  1   
  4   2   5  2   
  5   3   6  1   
  6   3  25  1   
  7   3  26  1   
  8   4   7  1   
  9   5   8  1   
 10   6   9  2   
 11   6  10  am  
 12   7   8  ar  
 13   7  11  ar  
 14   8  12  ar  
 15  10  13  1   
 16  10  27  1   
 17  11  14  ar  
 18  11  28  1   
 19  12  15  ar  
 20  12  29  1   
 21  13  16  1   
 22  13  17  1   
 23  13  18  1   
 24  14  15  ar  
 25  14  30  1   
 26  15  31  1   
 27  16  19  1   
 28  16  32  1   
 29  16  33  1   
 30  17  20  1   
 31  17  34  1   
 32  17  35  1   
 33  18  21  1   
 34  18  36  1   
 35  18  37  1   
 36  19  22  1   
 37  19  23  1   
 38  19  38  1   
 39  20  22  1   
 40  20  24  1   
 41  20  39  1   
 42  21  23  1   
 43  21  24  1   
 44  21  40  1   
 45  22  41  1   
 46  22  42  1   
 47  23  43  1   
 48  23  44  1   
 49  24  45  1   
 50  24  46  1   
@<TRIPOS>SUBSTRUCTURE
  1 ****   3 GROUP 4 **** **** 0

# MOE 2024.06 (io_trps.svl 2023.06)
