@<TRIPOS>MOLECULE
N-Isopropyl-2,3-dimethoxy-N-[3-(4-methoxy-phenyl)-[1,2,4]oxadiazol-5-ylmethyl]-b
55 57 1 0 0 
SMALL
USER_CHARGES


@<TRIPOS>ATOM
  1 O        0.3710     0.7480     1.5610 O.2   1 <1>  -0.5700 
  2 C        0.3020     1.6370     0.7320 C.2   1 <1>   0.5440 
  3 N        1.3030     1.7510    -0.2130 N.am  1 <1>  -0.6600 
  4 C       -0.8110     2.5580     0.8060 C.ar  1 <1>   0.0860 
  5 C        1.2590     2.8040    -1.2750 C.3   1 <1>   0.2200 
  6 C        2.4860     0.8200    -0.1510 C.3   1 <1>   0.3200 
  7 C       -1.9020     2.4660    -0.0610 C.ar  1 <1>   0.0820 
  8 C       -0.8240     3.5630     1.7720 C.ar  1 <1>  -0.1500 
  9 C        1.8050     2.3080    -2.6150 C.3   1 <1>  -0.2400 
 10 C        1.9980     4.0580    -0.8070 C.3   1 <1>  -0.2400 
 11 C        3.7600     1.5150     0.3030 C.2   1 <1>   0.2980 
 12 O       -1.8980     1.5030    -1.0110 O.3   1 <1>  -0.3630 
 13 C       -2.9700     3.3630     0.0250 C.ar  1 <1>   0.0820 
 14 C       -1.8760     4.4530     1.8670 C.ar  1 <1>  -0.1500 
 15 O        3.7800     2.0780     1.4830 O.3   1 <1>  -0.0190 
 16 N        4.8380     1.6120    -0.3650 N.2   1 <1>  -0.5650 
 17 C       -2.5940     0.3200    -0.6960 C.3   1 <1>   0.0400 
 18 O       -3.9990     3.2210    -0.8590 O.3   1 <1>  -0.3630 
 19 C       -2.9480     4.3570     0.9960 C.ar  1 <1>  -0.1500 
 20 N        4.9710     2.5830     1.5720 N.2   1 <1>  -0.4100 
 21 C        5.6000     2.3110     0.4840 C.2   1 <1>   0.4620 
 22 C       -5.0850     4.1200    -0.8830 C.3   1 <1>   0.0400 
 23 C        6.9650     2.7010     0.1730 C.ar  1 <1>   0.0540 
 24 C        7.5630     2.3760    -1.0470 C.ar  1 <1>  -0.1500 
 25 C        7.7380     3.4230     1.0860 C.ar  1 <1>  -0.1500 
 26 C        8.8610     2.7510    -1.3380 C.ar  1 <1>  -0.1500 
 27 C        9.0380     3.8020     0.8030 C.ar  1 <1>  -0.1500 
 28 C        9.6100     3.4660    -0.4190 C.ar  1 <1>   0.0820 
 29 O       10.8740     3.7950    -0.7800 O.3   1 <1>  -0.3620 
 30 C       11.7200     4.5200     0.0840 C.3   1 <1>   0.0400 
 31 H        0.2330     3.0780    -1.4490 H     1 <1>   0.0800 
 32 H        2.6500     0.3750    -1.1140 H     1 <1>   0.0800 
 33 H        2.2990     0.0080     0.5270 H     1 <1>   0.0800 
 34 H        0.0060     3.6340     2.4550 H     1 <1>   0.1500 
 35 H        2.8660     2.1400    -2.5700 H     1 <1>   0.0800 
 36 H        1.6220     3.0510    -3.3700 H     1 <1>   0.0800 
 37 H        1.3000     1.4050    -2.9070 H     1 <1>   0.0800 
 38 H        3.0560     3.8900    -0.7470 H     1 <1>   0.0800 
 39 H        1.6330     4.3710     0.1540 H     1 <1>   0.0800 
 40 H        1.8290     4.8570    -1.5060 H     1 <1>   0.0800 
 41 H       -1.8630     5.2220     2.6210 H     1 <1>   0.1500 
 42 H       -2.5060    -0.3550    -1.5280 H     1 <1>   0.0800 
 43 H       -3.6280     0.5590    -0.5220 H     1 <1>   0.0800 
 44 H       -2.1540    -0.1180     0.1840 H     1 <1>   0.0800 
 45 H       -3.7500     5.0630     1.0960 H     1 <1>   0.1500 
 46 H       -5.7480     3.8210    -1.6750 H     1 <1>   0.0800 
 47 H       -4.7140     5.1120    -1.0750 H     1 <1>   0.0800 
 48 H       -5.6000     4.0740     0.0600 H     1 <1>   0.0800 
 49 H        7.0040     1.8200    -1.7790 H     1 <1>   0.1500 
 50 H        7.3110     3.6910     2.0370 H     1 <1>   0.1500 
 51 H        9.3050     2.4910    -2.2820 H     1 <1>   0.1500 
 52 H        9.5860     4.3550     1.5410 H     1 <1>   0.1500 
 53 H       12.6630     4.6600    -0.4130 H     1 <1>   0.0800 
 54 H       11.8640     3.9530     0.9880 H     1 <1>   0.0800 
 55 H       11.2710     5.4740     0.2940 H     1 <1>   0.0800 
@<TRIPOS>BOND
  1   1   2  2   
  2   2   3  am  
  3   2   4  1   
  4   3   5  1   
  5   3   6  1   
  6   4   7  ar  
  7   4   8  ar  
  8   5   9  1   
  9   5  10  1   
 10   5  31  1   
 11   6  11  1   
 12   6  32  1   
 13   6  33  1   
 14   7  12  1   
 15   7  13  ar  
 16   8  14  ar  
 17   8  34  1   
 18   9  35  1   
 19   9  36  1   
 20   9  37  1   
 21  10  38  1   
 22  10  39  1   
 23  10  40  1   
 24  11  15  1   
 25  11  16  2   
 26  12  17  1   
 27  13  18  1   
 28  13  19  ar  
 29  14  19  ar  
 30  14  41  1   
 31  15  20  1   
 32  16  21  1   
 33  17  42  1   
 34  17  43  1   
 35  17  44  1   
 36  18  22  1   
 37  19  45  1   
 38  20  21  2   
 39  21  23  1   
 40  22  46  1   
 41  22  47  1   
 42  22  48  1   
 43  23  24  ar  
 44  23  25  ar  
 45  24  26  ar  
 46  24  49  1   
 47  25  27  ar  
 48  25  50  1   
 49  26  28  ar  
 50  26  51  1   
 51  27  28  ar  
 52  27  52  1   
 53  28  29  1   
 54  29  30  1   
 55  30  53  1   
 56  30  54  1   
 57  30  55  1   
@<TRIPOS>SUBSTRUCTURE
  1 ****  11 GROUP 4 **** **** 0

# MOE 2024.06 (io_trps.svl 2023.06)
