@<TRIPOS>MOLECULE
8-Cyclopentyl-3-(3-hydroxy-propyl)-1,7-dimethyl-1H,8H-imidazo[2,1-f]purine-2,4-d
49 52 1 0 0 
SMALL
USER_CHARGES


@<TRIPOS>ATOM
  1 O        0.2850     0.0510     0.7460 O.2   1 <1>  -0.5750 
  2 C        1.4230     0.4710     0.7000 C.2   1 <1>   0.6860 
  3 N        1.6730     1.8350     0.8210 N.am  1 <1>  -0.4260 
  4 N        2.4770    -0.4210     0.5330 N.am  1 <1>  -0.4420 
  5 C        2.9690     2.3340     0.8040 C.2   1 <1>   0.6990 
  6 C        0.5260     2.7830     0.9640 C.3   1 <1>   0.1330 
  7 C        3.7630     0.0810     0.5370 C.2   1 <1>   0.4200 
  8 C        2.2180    -1.8840     0.3820 C.3   1 <1>   0.0520 
  9 O        3.1860     3.5300     0.9060 O.2   1 <1>  -0.5750 
 10 C        4.0380     1.4020     0.6630 C.2   1 <1>   0.2700 
 11 C        0.1010     3.3090    -0.4090 C.3   1 <1>  -0.1670 
 12 N        4.9340    -0.6110     0.4240 N.pl3 1 <1>  -0.7040 
 13 N        5.4360     1.5170     0.6170 N.pl3 1 <1>  -0.6330 
 14 C       -1.0830     4.2640    -0.2710 C.3   1 <1>   0.1120 
 15 C        5.9210     0.2900     0.4730 C.cat 1 <1>   1.0690 
 16 C        6.5140     2.3770     0.6440 C.2   1 <1>   0.2220 
 17 O       -1.4300     4.7100    -1.5300 O.3   1 <1>  -0.6840 
 18 N        7.2600     0.2910     0.4140 N.pl3 1 <1>  -0.5720 
 19 C        7.6310     1.6270     0.5180 C.2   1 <1>   0.1570 
 20 C        8.1880    -0.8560     0.2220 C.3   1 <1>   0.2410 
 21 C        9.0780     2.0860     0.4810 C.3   1 <1>  -0.1100 
 22 C        8.2300    -1.2490    -1.2530 C.3   1 <1>  -0.1670 
 23 C        7.7120    -2.1210     0.9460 C.3   1 <1>  -0.1670 
 24 C        7.1320    -2.2930    -1.4410 C.3   1 <1>  -0.1670 
 25 C        7.0400    -3.0250    -0.0990 C.3   1 <1>  -0.1670 
 26 H        0.8120     3.6070     1.5980 H     1 <1>   0.0720 
 27 H       -0.3050     2.2880     1.4370 H     1 <1>   0.0720 
 28 H        1.2440    -2.0500    -0.0480 H     1 <1>   0.0720 
 29 H        2.2530    -2.3590     1.3470 H     1 <1>   0.0720 
 30 H        2.9480    -2.3330    -0.2670 H     1 <1>   0.0720 
 31 H       -0.1940     2.4810    -1.0310 H     1 <1>   0.0720 
 32 H        0.9250     3.8310    -0.8640 H     1 <1>   0.0720 
 33 H        5.0950    -1.6080     0.2980 H     1 <1>   0.4450 
 34 H       -0.8350     5.1200     0.3340 H     1 <1>   0.0720 
 35 H       -1.9400     3.7620     0.1480 H     1 <1>   0.0720 
 36 H        6.4010     3.4460     0.7490 H     1 <1>   0.1430 
 37 H       -0.6970     5.2150    -1.9320 H     1 <1>   0.3940 
 38 H        9.1710    -0.5850     0.5680 H     1 <1>   0.0720 
 39 H        9.5420     1.7790    -0.4400 H     1 <1>   0.0720 
 40 H        9.6240     1.6640     1.3060 H     1 <1>   0.0720 
 41 H        9.1330     3.1580     0.5490 H     1 <1>   0.0720 
 42 H        9.1800    -1.7180    -1.4500 H     1 <1>   0.0720 
 43 H        8.1250    -0.4090    -1.9170 H     1 <1>   0.0720 
 44 H        7.0780    -1.9090     1.7890 H     1 <1>   0.0720 
 45 H        8.5810    -2.6380     1.3200 H     1 <1>   0.0720 
 46 H        7.3720    -2.9720    -2.2430 H     1 <1>   0.0720 
 47 H        6.2010    -1.8100    -1.6770 H     1 <1>   0.0720 
 48 H        6.0240    -3.2680     0.1570 H     1 <1>   0.0720 
 49 H        7.5900    -3.9500    -0.1650 H     1 <1>   0.0720 
@<TRIPOS>BOND
  1   1   2  2   
  2   2   3  am  
  3   2   4  am  
  4   3   5  am  
  5   3   6  1   
  6   4   7  1   
  7   4   8  1   
  8   5   9  2   
  9   5  10  1   
 10   6  11  1   
 11   6  26  1   
 12   6  27  1   
 13   7  10  2   
 14   7  12  1   
 15   8  28  1   
 16   8  29  1   
 17   8  30  1   
 18  10  13  1   
 19  11  14  1   
 20  11  31  1   
 21  11  32  1   
 22  12  15  ar  
 23  12  33  1   
 24  13  15  ar  
 25  13  16  1   
 26  14  17  1   
 27  14  34  1   
 28  14  35  1   
 29  15  18  ar  
 30  16  19  2   
 31  16  36  1   
 32  17  37  1   
 33  18  19  1   
 34  18  20  1   
 35  19  21  1   
 36  20  22  1   
 37  20  23  1   
 38  20  38  1   
 39  21  39  1   
 40  21  40  1   
 41  21  41  1   
 42  22  24  1   
 43  22  42  1   
 44  22  43  1   
 45  23  25  1   
 46  23  44  1   
 47  23  45  1   
 48  24  25  1   
 49  24  46  1   
 50  24  47  1   
 51  25  48  1   
 52  25  49  1   
@<TRIPOS>SUBSTRUCTURE
  1 ****  10 GROUP 4 **** **** 0

# MOE 2024.06 (io_trps.svl 2023.06)
