@<TRIPOS>MOLECULE
Methyl-(2-o-tolyloxy-ethyl)-amine
28 28 1 0 0 
SMALL
USER_CHARGES


@<TRIPOS>ATOM
  1 O        0.1430    -0.2900    -0.0090 O.3   1 <1>  -0.3630 
  2 C        1.4300    -0.7280    -0.0140 C.ar  1 <1>   0.0830 
  3 C       -0.9410    -1.1820     0.0110 C.3   1 <1>   0.1200 
  4 C        2.4370     0.2340    -0.0350 C.ar  1 <1>  -0.1440 
  5 C        1.7690    -2.0800     0.0020 C.ar  1 <1>  -0.1500 
  6 C       -2.2160    -0.3360     0.0100 C.3   1 <1>   0.3430 
  7 C        3.7640    -0.1640    -0.0400 C.ar  1 <1>  -0.1500 
  8 C        2.1010     1.7190    -0.0520 C.3   1 <1>  -0.0960 
  9 C        3.0980    -2.4640    -0.0040 C.ar  1 <1>  -0.1500 
 10 N       -3.4500    -1.1820     0.0320 N.4   1 <1>  -0.9060 
 11 C        4.0950    -1.5070    -0.0250 C.ar  1 <1>  -0.1500 
 12 C       -4.6920    -0.3520     0.0310 C.3   1 <1>   0.2630 
 13 H       -0.8670    -1.7740     0.9070 H     1 <1>   0.0800 
 14 H       -0.8820    -1.7980    -0.8690 H     1 <1>   0.0800 
 15 H        1.0260    -2.8520     0.0180 H     1 <1>   0.1500 
 16 H       -2.2160     0.2830    -0.8730 H     1 <1>   0.0800 
 17 H       -2.2020     0.3060     0.8770 H     1 <1>   0.0800 
 18 H        4.5510     0.5700    -0.0570 H     1 <1>   0.1500 
 19 H        1.5190     1.9520    -0.9260 H     1 <1>   0.0800 
 20 H        2.9940     2.3180    -0.0680 H     1 <1>   0.0800 
 21 H        1.5340     1.9760     0.8240 H     1 <1>   0.0800 
 22 H        3.3610    -3.5080     0.0080 H     1 <1>   0.1500 
 23 H       -3.4430    -1.7840     0.8670 H     1 <1>   0.4500 
 24 H       -3.4560    -1.8060    -0.7880 H     1 <1>   0.4500 
 25 H        5.1290    -1.8050    -0.0290 H     1 <1>   0.1500 
 26 H       -4.7170     0.2890     0.8980 H     1 <1>   0.0800 
 27 H       -5.5660    -0.9840     0.0460 H     1 <1>   0.0800 
 28 H       -4.7310     0.2650    -0.8540 H     1 <1>   0.0800 
@<TRIPOS>BOND
  1   1   2  1   
  2   1   3  1   
  3   2   4  ar  
  4   2   5  ar  
  5   3   6  1   
  6   3  13  1   
  7   3  14  1   
  8   4   7  ar  
  9   4   8  1   
 10   5   9  ar  
 11   5  15  1   
 12   6  10  1   
 13   6  16  1   
 14   6  17  1   
 15   7  11  ar  
 16   7  18  1   
 17   8  19  1   
 18   8  20  1   
 19   8  21  1   
 20   9  11  ar  
 21   9  22  1   
 22  10  12  1   
 23  10  23  1   
 24  10  24  1   
 25  11  25  1   
 26  12  26  1   
 27  12  27  1   
 28  12  28  1   
@<TRIPOS>SUBSTRUCTURE
  1 ****   1 GROUP 4 **** **** 0

# MOE 2024.06 (io_trps.svl 2023.06)
