@<TRIPOS>MOLECULE
1-[3-(4-Trifluoromethyl-phenyl)-[1,2,4]oxadiazol-5-ylmethyl]-azepane
42 44 1 0 0 
SMALL
USER_CHARGES


@<TRIPOS>ATOM
  1 F       -0.3200    -0.1320    -0.5710 F     1 <1>  -0.3400 
  2 C       -0.2820    -1.4440    -0.3670 C.3   1 <1>   1.1640 
  3 F       -1.0170    -1.6750     0.7120 F     1 <1>  -0.3400 
  4 F       -0.9310    -1.9960    -1.3860 F     1 <1>  -0.3400 
  5 C        1.1500    -1.9860    -0.2130 C.ar  1 <1>  -0.1440 
  6 C        1.4570    -3.2990    -0.5510 C.ar  1 <1>  -0.1500 
  7 C        2.1730    -1.1820     0.2770 C.ar  1 <1>  -0.1500 
  8 C        2.7440    -3.7870    -0.4090 C.ar  1 <1>  -0.1500 
  9 C        3.4570    -1.6760     0.4170 C.ar  1 <1>  -0.1500 
 10 C        3.7810    -2.9900     0.0790 C.ar  1 <1>   0.0540 
 11 C        5.1360    -3.4950     0.2320 C.2   1 <1>   0.4620 
 12 N        6.1510    -2.8100     0.6240 N.2   1 <1>  -0.4100 
 13 N        5.4780    -4.7660    -0.0240 N.2   1 <1>  -0.5650 
 14 O        7.1860    -3.5850     0.6380 O.3   1 <1>  -0.0190 
 15 C        6.7210    -4.7370     0.2440 C.2   1 <1>   0.2980 
 16 C        7.6990    -5.9070     0.1480 C.3   1 <1>   0.5230 
 17 N        6.9900    -7.2190    -0.0500 N.4   1 <1>  -0.9590 
 18 C        6.2810    -7.6340     1.1970 C.3   1 <1>   0.3430 
 19 C        7.9020    -8.2490    -0.6170 C.3   1 <1>   0.3430 
 20 C        5.0220    -8.4190     0.8340 C.3   1 <1>  -0.1600 
 21 C        7.1440    -9.4900    -1.0920 C.3   1 <1>  -0.1600 
 22 C        5.2300    -9.9230     0.5850 C.3   1 <1>  -0.1600 
 23 C        6.6080   -10.3520     0.0600 C.3   1 <1>  -0.1600 
 24 H        0.6890    -3.9540    -0.9310 H     1 <1>   0.1500 
 25 H        1.9760    -0.1590     0.5550 H     1 <1>   0.1500 
 26 H        2.9440    -4.8070    -0.6840 H     1 <1>   0.1500 
 27 H        4.2250    -1.0230     0.7980 H     1 <1>   0.1500 
 28 H        8.2950    -5.9440     1.0440 H     1 <1>   0.0800 
 29 H        8.3560    -5.7190    -0.6840 H     1 <1>   0.0800 
 30 H        6.2490    -7.0260    -0.7400 H     1 <1>   0.4500 
 31 H        5.9740    -6.7550     1.7420 H     1 <1>   0.0800 
 32 H        6.9240    -8.2190     1.8350 H     1 <1>   0.0800 
 33 H        8.6360    -8.5380     0.1180 H     1 <1>   0.0800 
 34 H        8.4260    -7.8320    -1.4630 H     1 <1>   0.0800 
 35 H        4.5490    -7.9670    -0.0210 H     1 <1>   0.0800 
 36 H        4.3260    -8.3220     1.6490 H     1 <1>   0.0800 
 37 H        7.8470   -10.0920    -1.6420 H     1 <1>   0.0800 
 38 H        6.3580    -9.2260    -1.7780 H     1 <1>   0.0800 
 39 H        4.4740   -10.2580    -0.1050 H     1 <1>   0.0800 
 40 H        5.0550   -10.4530     1.5070 H     1 <1>   0.0800 
 41 H        7.3200   -10.3690     0.8680 H     1 <1>   0.0800 
 42 H        6.5170   -11.3680    -0.2870 H     1 <1>   0.0800 
@<TRIPOS>BOND
  1   1   2  1   
  2   2   3  1   
  3   2   4  1   
  4   2   5  1   
  5   5   6  ar  
  6   5   7  ar  
  7   6   8  ar  
  8   6  24  1   
  9   7   9  ar  
 10   7  25  1   
 11   8  10  ar  
 12   8  26  1   
 13   9  10  ar  
 14   9  27  1   
 15  10  11  1   
 16  11  12  2   
 17  11  13  1   
 18  12  14  1   
 19  13  15  2   
 20  14  15  1   
 21  15  16  1   
 22  16  17  1   
 23  16  28  1   
 24  16  29  1   
 25  17  18  1   
 26  17  19  1   
 27  17  30  1   
 28  18  20  1   
 29  18  31  1   
 30  18  32  1   
 31  19  21  1   
 32  19  33  1   
 33  19  34  1   
 34  20  22  1   
 35  20  35  1   
 36  20  36  1   
 37  21  23  1   
 38  21  37  1   
 39  21  38  1   
 40  22  23  1   
 41  22  39  1   
 42  22  40  1   
 43  23  41  1   
 44  23  42  1   
@<TRIPOS>SUBSTRUCTURE
  1 ****  13 GROUP 4 **** **** 0

# MOE 2024.06 (io_trps.svl 2023.06)
