@<TRIPOS>MOLECULE
N-Cyclohexyl-N-(3-p-tolyl-[1,2,4]oxadiazol-5-ylmethyl)-benzenesulfonamide
54 57 1 0 0 
SMALL
USER_CHARGES


@<TRIPOS>ATOM
  1 S        0.8310    -1.0430    -1.0120 S.o2  1 <1>   1.4470 
  2 O        1.5890    -0.4390    -2.0850 O.2   1 <1>  -0.6500 
  3 O        0.7160    -2.4850    -0.9890 O.2   1 <1>  -0.6500 
  4 N        1.5510    -0.6300     0.4700 N.am  1 <1>  -0.8490 
  5 C       -0.8460    -0.3540    -0.9470 C.ar  1 <1>  -0.0090 
  6 C        1.7340     0.7790     0.8720 C.3   1 <1>   0.2760 
  7 C        2.7450    -1.4550     0.7460 C.3   1 <1>   0.3760 
  8 C       -1.2310     0.6970    -1.7730 C.ar  1 <1>  -0.1500 
  9 C       -1.7860    -0.8540    -0.0520 C.ar  1 <1>  -0.1500 
 10 C        0.5070     1.2710     1.6500 C.3   1 <1>  -0.1600 
 11 C        2.0960     1.7680    -0.2490 C.3   1 <1>  -0.1600 
 12 C        4.0070    -1.0470    -0.0100 C.2   1 <1>   0.2980 
 13 C       -2.5040     1.2360    -1.7040 C.ar  1 <1>  -0.1500 
 14 C       -3.0620    -0.3210     0.0240 C.ar  1 <1>  -0.1500 
 15 C        0.7540     2.6710     2.2330 C.3   1 <1>  -0.1600 
 16 C        2.3570     3.1670     0.3270 C.3   1 <1>  -0.1600 
 17 O        4.2270    -1.5510    -1.1950 O.3   1 <1>  -0.0190 
 18 N        4.9040    -0.2540     0.4200 N.2   1 <1>  -0.5650 
 19 C       -3.4210     0.7280    -0.8030 C.ar  1 <1>  -0.1500 
 20 C        1.1490     3.6670     1.1330 C.3   1 <1>  -0.1600 
 21 N        5.3570    -1.0280    -1.5550 N.2   1 <1>  -0.4100 
 22 C        5.7560    -0.2520    -0.6110 C.2   1 <1>   0.4620 
 23 C        6.9710     0.5450    -0.6230 C.ar  1 <1>   0.0540 
 24 C        7.3410     1.3400     0.4640 C.ar  1 <1>  -0.1500 
 25 C        7.8220     0.5510    -1.7290 C.ar  1 <1>  -0.1500 
 26 C        8.4960     2.1000     0.4470 C.ar  1 <1>  -0.1500 
 27 C        8.9780     1.3080    -1.7510 C.ar  1 <1>  -0.1500 
 28 C        9.3240     2.0900    -0.6630 C.ar  1 <1>  -0.1430 
 29 C       10.5940     2.9210    -0.6840 C.3   1 <1>  -0.0970 
 30 H        2.5500     0.8140     1.5770 H     1 <1>   0.0800 
 31 H        2.5430    -2.4930     0.5490 H     1 <1>   0.0800 
 32 H        2.9630    -1.3860     1.7970 H     1 <1>   0.0800 
 33 H       -0.5260     1.0980    -2.4830 H     1 <1>   0.1500 
 34 H       -1.5130    -1.6710     0.5930 H     1 <1>   0.1500 
 35 H        0.2890     0.5870     2.4510 H     1 <1>   0.0800 
 36 H       -0.3480     1.3260     1.0050 H     1 <1>   0.0800 
 37 H        1.2880     1.8480    -0.9520 H     1 <1>   0.0800 
 38 H        2.9750     1.4390    -0.7720 H     1 <1>   0.0800 
 39 H       -2.7810     2.0500    -2.3520 H     1 <1>   0.1500 
 40 H       -3.7740    -0.7230     0.7240 H     1 <1>   0.1500 
 41 H        1.5390     2.6210     2.9680 H     1 <1>   0.0800 
 42 H       -0.1380     3.0170     2.7280 H     1 <1>   0.0800 
 43 H        2.5630     3.8540    -0.4770 H     1 <1>   0.0800 
 44 H        3.2260     3.1360     0.9620 H     1 <1>   0.0800 
 45 H       -4.4120     1.1450    -0.7470 H     1 <1>   0.1500 
 46 H        1.3820     4.6200     1.5770 H     1 <1>   0.0800 
 47 H        0.3140     3.8100     0.4680 H     1 <1>   0.0800 
 48 H        6.7140     1.3650     1.3370 H     1 <1>   0.1500 
 49 H        7.5730    -0.0480    -2.5880 H     1 <1>   0.1500 
 50 H        8.7500     2.6990     1.3030 H     1 <1>   0.1500 
 51 H        9.6100     1.2860    -2.6220 H     1 <1>   0.1500 
 52 H       11.4150     2.3380    -0.3080 H     1 <1>   0.0800 
 53 H       10.4810     3.7970    -0.0720 H     1 <1>   0.0800 
 54 H       10.8200     3.2350    -1.6870 H     1 <1>   0.0800 
@<TRIPOS>BOND
  1   1   2  2   
  2   1   3  2   
  3   1   4  am  
  4   1   5  1   
  5   4   6  1   
  6   4   7  1   
  7   5   8  ar  
  8   5   9  ar  
  9   6  10  1   
 10   6  11  1   
 11   6  30  1   
 12   7  12  1   
 13   7  31  1   
 14   7  32  1   
 15   8  13  ar  
 16   8  33  1   
 17   9  14  ar  
 18   9  34  1   
 19  10  15  1   
 20  10  35  1   
 21  10  36  1   
 22  11  16  1   
 23  11  37  1   
 24  11  38  1   
 25  12  17  1   
 26  12  18  2   
 27  13  19  ar  
 28  13  39  1   
 29  14  19  ar  
 30  14  40  1   
 31  15  20  1   
 32  15  41  1   
 33  15  42  1   
 34  16  20  1   
 35  16  43  1   
 36  16  44  1   
 37  17  21  1   
 38  18  22  1   
 39  19  45  1   
 40  20  46  1   
 41  20  47  1   
 42  21  22  2   
 43  22  23  1   
 44  23  24  ar  
 45  23  25  ar  
 46  24  26  ar  
 47  24  48  1   
 48  25  27  ar  
 49  25  49  1   
 50  26  28  ar  
 51  26  50  1   
 52  27  28  ar  
 53  27  51  1   
 54  28  29  1   
 55  29  52  1   
 56  29  53  1   
 57  29  54  1   
@<TRIPOS>SUBSTRUCTURE
  1 ****  11 GROUP 4 **** **** 0

# MOE 2024.06 (io_trps.svl 2023.06)
