@<TRIPOS>MOLECULE
7-Methyl-5-oxo-2,3-dihydro-1H,5H-pyrido[3,2,1-ij]quinoline-9-sulfonic acid [2-(3
57 60 1 0 0 
SMALL
USER_CHARGES


@<TRIPOS>ATOM
  1 S        0.2240     0.1030    -1.4760 S.o2  1 <1>   1.4470 
  2 O        0.5070     1.4890    -1.7680 O.2   1 <1>  -0.6500 
  3 O       -0.4810    -0.7230    -2.4290 O.2   1 <1>  -0.6500 
  4 N       -0.7180     0.1770    -0.0910 N.am  1 <1>  -0.9140 
  5 C        1.7220    -0.7440    -0.9060 C.ar  1 <1>  -0.0090 
  6 C       -2.1200     0.4420    -0.3820 C.3   1 <1>   0.1960 
  7 C        2.9580    -0.1260    -0.9240 C.ar  1 <1>  -0.1500 
  8 C        1.6570    -2.0480    -0.4250 C.ar  1 <1>  -0.1500 
  9 C       -2.9040     0.5440     0.9260 C.3   1 <1>  -0.0160 
 10 C        4.1250    -0.7560    -0.4800 C.ar  1 <1>   0.0280 
 11 C        2.7800    -2.7070     0.0250 C.ar  1 <1>  -0.1430 
 12 C       -4.3640     0.8500     0.6380 C.ar  1 <1>  -0.1430 
 13 C        4.0310    -2.0760     0.0090 C.ar  1 <1>   0.1170 
 14 C        5.4140    -0.1150    -0.5030 C.2   1 <1>  -0.1670 
 15 C        2.6390    -4.1340     0.5330 C.3   1 <1>  -0.0170 
 16 C       -4.8110     2.1600     0.6020 C.ar  1 <1>  -0.1500 
 17 C       -5.2640    -0.1750     0.4030 C.ar  1 <1>  -0.1500 
 18 N        5.1830    -2.7350     0.4760 N.am  1 <1>  -0.4770 
 19 C        6.5000    -0.7930    -0.0630 C.2   1 <1>  -0.1360 
 20 C        5.5610     1.3110    -1.0200 C.3   1 <1>  -0.1020 
 21 C        3.7230    -4.4380     1.5650 C.3   1 <1>  -0.1600 
 22 C       -6.1370     2.4620     0.3400 C.ar  1 <1>   0.0830 
 23 C       -6.5910     0.1070     0.1280 C.ar  1 <1>  -0.1500 
 24 C        6.4220    -2.1250     0.4290 C.2   1 <1>   0.6160 
 25 C        5.1050    -4.1340     0.9860 C.3   1 <1>   0.1400 
 26 O       -6.4330     3.7930     0.3520 O.3   1 <1>  -0.3620 
 27 C       -7.0470     1.4230     0.0830 C.ar  1 <1>   0.0830 
 28 O        7.4290    -2.7120     0.7940 O.2   1 <1>  -0.5700 
 29 C       -7.6920     4.2550     0.7870 C.3   1 <1>   0.0400 
 30 O       -8.3470     1.7120    -0.2220 O.3   1 <1>  -0.3630 
 31 C       -9.2370     0.7300    -0.7040 C.3   1 <1>   0.0400 
 32 H       -0.3560     0.9990     0.3900 H     1 <1>   0.4200 
 33 H       -2.5280    -0.3580    -0.9780 H     1 <1>   0.0800 
 34 H       -2.2150     1.3620    -0.9380 H     1 <1>   0.0800 
 35 H        3.0110     0.8800    -1.2990 H     1 <1>   0.1500 
 36 H        0.6980    -2.5400    -0.4130 H     1 <1>   0.1500 
 37 H       -2.4900     1.3220     1.5410 H     1 <1>   0.0800 
 38 H       -2.8300    -0.3870     1.4610 H     1 <1>   0.0800 
 39 H        2.7310    -4.8100    -0.2990 H     1 <1>   0.0800 
 40 H        1.6710    -4.2780     0.9790 H     1 <1>   0.0800 
 41 H       -4.1310     2.9730     0.7820 H     1 <1>   0.1500 
 42 H       -4.9360    -1.2000     0.4300 H     1 <1>   0.1500 
 43 H        7.4850    -0.3680    -0.0600 H     1 <1>   0.1500 
 44 H        5.2440     1.3680    -2.0460 H     1 <1>   0.0800 
 45 H        6.5850     1.6350    -0.9670 H     1 <1>   0.0800 
 46 H        4.9670     1.9840    -0.4280 H     1 <1>   0.0800 
 47 H        3.6740    -5.4720     1.8550 H     1 <1>   0.0800 
 48 H        3.5710    -3.8360     2.4440 H     1 <1>   0.0800 
 49 H       -7.2510    -0.7200    -0.0480 H     1 <1>   0.1500 
 50 H        5.8450    -4.2860     1.7540 H     1 <1>   0.0800 
 51 H        5.3220    -4.8060     0.1740 H     1 <1>   0.0800 
 52 H       -7.5920     5.2870     1.0690 H     1 <1>   0.0800 
 53 H       -8.0090     3.6690     1.6320 H     1 <1>   0.0800 
 54 H       -8.3930     4.1660    -0.0230 H     1 <1>   0.0800 
 55 H      -10.1620     1.2160    -0.9580 H     1 <1>   0.0800 
 56 H       -9.4080     0.0030     0.0690 H     1 <1>   0.0800 
 57 H       -8.8120     0.2730    -1.5800 H     1 <1>   0.0800 
@<TRIPOS>BOND
  1   1   2  2   
  2   1   3  2   
  3   1   4  am  
  4   1   5  1   
  5   4   6  1   
  6   4  32  1   
  7   5   7  ar  
  8   5   8  ar  
  9   6   9  1   
 10   6  33  1   
 11   6  34  1   
 12   7  10  ar  
 13   7  35  1   
 14   8  11  ar  
 15   8  36  1   
 16   9  12  1   
 17   9  37  1   
 18   9  38  1   
 19  10  13  ar  
 20  10  14  1   
 21  11  13  ar  
 22  11  15  1   
 23  12  16  ar  
 24  12  17  ar  
 25  13  18  1   
 26  14  19  2   
 27  14  20  1   
 28  15  21  1   
 29  15  39  1   
 30  15  40  1   
 31  16  22  ar  
 32  16  41  1   
 33  17  23  ar  
 34  17  42  1   
 35  18  24  am  
 36  18  25  1   
 37  19  24  1   
 38  19  43  1   
 39  20  44  1   
 40  20  45  1   
 41  20  46  1   
 42  21  25  1   
 43  21  47  1   
 44  21  48  1   
 45  22  26  1   
 46  22  27  ar  
 47  23  27  ar  
 48  23  49  1   
 49  24  28  2   
 50  25  50  1   
 51  25  51  1   
 52  26  29  1   
 53  27  30  1   
 54  29  52  1   
 55  29  53  1   
 56  29  54  1   
 57  30  31  1   
 58  31  55  1   
 59  31  56  1   
 60  31  57  1   
@<TRIPOS>SUBSTRUCTURE
  1 ****   4 GROUP 4 **** **** 0

# MOE 2024.06 (io_trps.svl 2023.06)
