@<TRIPOS>MOLECULE
4-(Furan-2-ylmethylsulfanylmethyl)-6-piperidin-1-yl-[1,3,5]triazin-2-ylamine
40 42 1 0 0 
SMALL
USER_CHARGES


@<TRIPOS>ATOM
  1 S       -0.6020     0.1810    -1.5710 S.3   1 <1>  -0.4600 
  2 C       -0.4100    -0.9010    -0.1090 C.3   1 <1>   0.2140 
  3 C       -0.7580     1.8430    -0.8550 C.3   1 <1>   0.2500 
  4 C       -0.7040    -2.3530    -0.4610 C.ar  1 <1>   0.4760 
  5 C        0.4150     2.1200     0.0700 C.2   1 <1>  -0.0400 
  6 N       -1.9470    -2.7400    -0.3820 N.ar  1 <1>  -0.6200 
  7 N        0.3080    -3.1080    -0.7920 N.ar  1 <1>  -0.6200 
  8 O        0.3800     1.6690     1.3100 O.3   1 <1>  -0.2800 
  9 C        1.5610     2.7990    -0.1530 C.2   1 <1>  -0.1500 
 10 C       -2.1580    -4.0060    -0.6870 C.ar  1 <1>   0.7200 
 11 C       -0.0340    -4.3340    -1.0790 C.ar  1 <1>   0.7200 
 12 C        1.4960     2.0450     1.9030 C.2   1 <1>  -0.0100 
 13 C        2.2730     2.7490     1.0530 C.2   1 <1>  -0.1500 
 14 N       -1.2210    -4.8530    -1.0370 N.ar  1 <1>  -0.6200 
 15 N       -3.4550    -4.4660    -0.6260 N.pl3 1 <1>  -0.8380 
 16 N        0.9610    -5.1500    -1.4300 N.pl3 1 <1>  -0.9000 
 17 C       -3.8010    -5.9160    -0.6340 C.3   1 <1>   0.2090 
 18 C       -4.6370    -3.5580    -0.6520 C.3   1 <1>   0.2090 
 19 C       -4.7070    -6.2340     0.5610 C.3   1 <1>  -0.1600 
 20 C       -5.5380    -3.8550     0.5500 C.3   1 <1>  -0.1600 
 21 C       -5.9500    -5.3340     0.5960 C.3   1 <1>  -0.1600 
 22 H       -1.0950    -0.5530     0.6410 H     1 <1>   0.0800 
 23 H        0.6010    -0.7900     0.2380 H     1 <1>   0.0800 
 24 H       -1.6930     1.8880    -0.3250 H     1 <1>   0.0800 
 25 H       -0.7690     2.5330    -1.6800 H     1 <1>   0.0800 
 26 H        1.8930     3.2860    -1.0520 H     1 <1>   0.1500 
 27 H        1.6570     1.7690     2.9300 H     1 <1>   0.1500 
 28 H        3.2370     3.1910     1.2290 H     1 <1>   0.1500 
 29 H        0.7730    -6.1480    -1.4220 H     1 <1>   0.4000 
 30 H        1.9100    -4.8360    -1.2520 H     1 <1>   0.4000 
 31 H       -2.9200    -6.5310    -0.5770 H     1 <1>   0.0800 
 32 H       -4.3100    -6.1480    -1.5540 H     1 <1>   0.0800 
 33 H       -5.1820    -3.7260    -1.5650 H     1 <1>   0.0800 
 34 H       -4.3440    -2.5230    -0.6340 H     1 <1>   0.0800 
 35 H       -4.1370    -6.0990     1.4640 H     1 <1>   0.0800 
 36 H       -5.0070    -7.2650     0.5130 H     1 <1>   0.0800 
 37 H       -6.4140    -3.2350     0.4980 H     1 <1>   0.0800 
 38 H       -5.0040    -3.5970     1.4480 H     1 <1>   0.0800 
 39 H       -6.5150    -5.5270     1.4910 H     1 <1>   0.0800 
 40 H       -6.5770    -5.5560    -0.2510 H     1 <1>   0.0800 
@<TRIPOS>BOND
  1   1   2  1   
  2   1   3  1   
  3   2   4  1   
  4   2  22  1   
  5   2  23  1   
  6   3   5  1   
  7   3  24  1   
  8   3  25  1   
  9   4   6  ar  
 10   4   7  ar  
 11   5   8  1   
 12   5   9  2   
 13   6  10  ar  
 14   7  11  ar  
 15   8  12  1   
 16   9  13  1   
 17   9  26  1   
 18  10  14  ar  
 19  10  15  1   
 20  11  14  ar  
 21  11  16  1   
 22  12  13  2   
 23  12  27  1   
 24  13  28  1   
 25  15  17  1   
 26  15  18  1   
 27  16  29  1   
 28  16  30  1   
 29  17  19  1   
 30  17  31  1   
 31  17  32  1   
 32  18  20  1   
 33  18  33  1   
 34  18  34  1   
 35  19  21  1   
 36  19  35  1   
 37  19  36  1   
 38  20  21  1   
 39  20  37  1   
 40  20  38  1   
 41  21  39  1   
 42  21  40  1   
@<TRIPOS>SUBSTRUCTURE
  1 ****   4 GROUP 4 **** **** 0

# MOE 2024.06 (io_trps.svl 2023.06)
