@<TRIPOS>MOLECULE
1-Isopropyl-5-oxo-pyrrolidine-3-carboxylic acid [4-(piperidine-1-sulfonyl)-pheny
54 56 1 0 0 
SMALL
USER_CHARGES


@<TRIPOS>ATOM
  1 S        0.4030    -0.0830    -1.6700 S.o2  1 <1>   1.4470 
  2 O        1.6750    -0.6690    -2.0330 O.2   1 <1>  -0.6500 
  3 O       -0.1920     0.9140    -2.5360 O.2   1 <1>  -0.6500 
  4 N        0.6020     0.6460    -0.1520 N.am  1 <1>  -0.8490 
  5 C       -0.7810    -1.4150    -1.3310 C.ar  1 <1>  -0.0090 
  6 C       -0.5960     1.3860     0.2620 C.3   1 <1>   0.1960 
  7 C        1.7850     1.5120    -0.1310 C.3   1 <1>   0.1960 
  8 C       -0.4990    -2.3980    -0.3900 C.ar  1 <1>  -0.1500 
  9 C       -2.0010    -1.4920    -1.9930 C.ar  1 <1>  -0.1500 
 10 C       -0.4340     1.8970     1.6970 C.3   1 <1>  -0.1600 
 11 C        2.0340     2.0420     1.2850 C.3   1 <1>  -0.1600 
 12 C       -1.3980    -3.4130    -0.1170 C.ar  1 <1>  -0.1500 
 13 C       -2.9040    -2.5050    -1.7240 C.ar  1 <1>  -0.1500 
 14 C        0.8090     2.7830     1.8340 C.3   1 <1>  -0.1600 
 15 C       -2.6190    -3.4830    -0.7770 C.ar  1 <1>   0.1170 
 16 N       -3.4930    -4.5370    -0.4740 N.am  1 <1>  -0.5470 
 17 C       -4.8540    -4.6330    -0.6040 C.2   1 <1>   0.5690 
 18 O       -5.5430    -3.7340    -1.0190 O.2   1 <1>  -0.5700 
 19 C       -5.5150    -5.9490    -0.2160 C.3   1 <1>  -0.0190 
 20 C       -7.0430    -5.8540    -0.0630 C.3   1 <1>   0.1400 
 21 C       -5.0200    -6.5520     1.1140 C.3   1 <1>  -0.0990 
 22 N       -7.3500    -6.8460     0.9880 N.am  1 <1>  -0.6600 
 23 C       -6.2410    -7.2410     1.6520 C.2   1 <1>   0.5690 
 24 C       -8.7240    -7.2840     1.3100 C.3   1 <1>   0.2200 
 25 O       -6.1910    -8.0350     2.5580 O.2   1 <1>  -0.5700 
 26 C       -9.3040    -8.0630     0.1320 C.3   1 <1>  -0.2400 
 27 C       -9.5870    -6.0740     1.6630 C.3   1 <1>  -0.2400 
 28 H       -1.4580     0.7410     0.2180 H     1 <1>   0.0800 
 29 H       -0.7640     2.2180    -0.4030 H     1 <1>   0.0800 
 30 H        1.6490     2.3330    -0.8170 H     1 <1>   0.0800 
 31 H        2.6520     0.9540    -0.4450 H     1 <1>   0.0800 
 32 H        0.4420    -2.3590     0.1350 H     1 <1>   0.1500 
 33 H       -2.2500    -0.7470    -2.7320 H     1 <1>   0.1500 
 34 H       -0.3550     1.0520     2.3590 H     1 <1>   0.0800 
 35 H       -1.3090     2.4560     1.9780 H     1 <1>   0.0800 
 36 H        2.8830     2.7020     1.2750 H     1 <1>   0.0800 
 37 H        2.2730     1.2110     1.9260 H     1 <1>   0.0800 
 38 H       -1.1450    -4.1540     0.6200 H     1 <1>   0.1500 
 39 H       -3.8340    -2.5310    -2.2620 H     1 <1>   0.1500 
 40 H        0.9670     3.0430     2.8670 H     1 <1>   0.0800 
 41 H        0.6630     3.6940     1.2770 H     1 <1>   0.0800 
 42 H       -3.0410    -5.3470    -0.0560 H     1 <1>   0.3700 
 43 H       -5.3220    -6.6550    -1.0030 H     1 <1>   0.0800 
 44 H       -7.5410    -6.0860    -0.9870 H     1 <1>   0.0800 
 45 H       -7.3430    -4.8770     0.2780 H     1 <1>   0.0800 
 46 H       -4.7320    -5.7890     1.8140 H     1 <1>   0.0800 
 47 H       -4.2210    -7.2550     0.9720 H     1 <1>   0.0800 
 48 H       -8.6840    -7.9380     2.1670 H     1 <1>   0.0800 
 49 H       -9.4180    -7.4340    -0.7310 H     1 <1>   0.0800 
 50 H      -10.2710    -8.4520     0.3970 H     1 <1>   0.0800 
 51 H       -8.6630    -8.8920    -0.1090 H     1 <1>   0.0800 
 52 H       -9.7030    -5.4210     0.8180 H     1 <1>   0.0800 
 53 H       -9.1410    -5.5320     2.4770 H     1 <1>   0.0800 
 54 H      -10.5620    -6.4030     1.9730 H     1 <1>   0.0800 
@<TRIPOS>BOND
  1   1   2  2   
  2   1   3  2   
  3   1   4  am  
  4   1   5  1   
  5   4   6  1   
  6   4   7  1   
  7   5   8  ar  
  8   5   9  ar  
  9   6  10  1   
 10   6  28  1   
 11   6  29  1   
 12   7  11  1   
 13   7  30  1   
 14   7  31  1   
 15   8  12  ar  
 16   8  32  1   
 17   9  13  ar  
 18   9  33  1   
 19  10  14  1   
 20  10  34  1   
 21  10  35  1   
 22  11  14  1   
 23  11  36  1   
 24  11  37  1   
 25  12  15  ar  
 26  12  38  1   
 27  13  15  ar  
 28  13  39  1   
 29  14  40  1   
 30  14  41  1   
 31  15  16  1   
 32  16  17  am  
 33  16  42  1   
 34  17  18  2   
 35  17  19  1   
 36  19  20  1   
 37  19  21  1   
 38  19  43  1   
 39  20  22  1   
 40  20  44  1   
 41  20  45  1   
 42  21  23  1   
 43  21  46  1   
 44  21  47  1   
 45  22  23  am  
 46  22  24  1   
 47  23  25  2   
 48  24  26  1   
 49  24  27  1   
 50  24  48  1   
 51  26  49  1   
 52  26  50  1   
 53  26  51  1   
 54  27  52  1   
 55  27  53  1   
 56  27  54  1   
@<TRIPOS>SUBSTRUCTURE
  1 ****  15 GROUP 4 **** **** 0

# MOE 2024.06 (io_trps.svl 2023.06)
