@<TRIPOS>MOLECULE
4-(4-Cyclohexyl-piperazin-1-ylmethyl)-6-methoxy-chromen-2-one
55 58 1 0 0 
SMALL
USER_CHARGES


@<TRIPOS>ATOM
  1 O        0.1110     0.0410     1.2300 O.2   1 <1>  -0.5700 
  2 C       -0.2830     1.1400     0.9010 C.2   1 <1>   0.7060 
  3 O       -1.5240     1.2680     0.4350 O.3   1 <1>  -0.2320 
  4 C        0.5310     2.3070     0.9670 C.2   1 <1>  -0.1360 
  5 C       -2.0370     2.4580     0.0440 C.ar  1 <1>   0.0820 
  6 C        0.0940     3.5240     0.5670 C.2   1 <1>  -0.1670 
  7 C       -1.2670     3.6330     0.1020 C.ar  1 <1>   0.0280 
  8 C       -3.3470     2.4760    -0.4090 C.ar  1 <1>  -0.1500 
  9 C        0.9900     4.7630     0.6120 C.3   1 <1>   0.2480 
 10 C       -1.8850     4.8260    -0.2900 C.ar  1 <1>  -0.1500 
 11 C       -3.9230     3.6640    -0.8040 C.ar  1 <1>  -0.1500 
 12 N        2.4210     4.4030     0.5440 N.3   1 <1>  -0.8100 
 13 C       -3.1980     4.8440    -0.7430 C.ar  1 <1>   0.0830 
 14 C        2.8110     3.9430    -0.8150 C.3   1 <1>   0.1100 
 15 C        3.2910     5.5260     0.9690 C.3   1 <1>   0.1100 
 16 O       -3.8480     5.9670    -1.1430 O.3   1 <1>  -0.3630 
 17 C        4.2980     3.5170    -0.8870 C.3   1 <1>   0.3430 
 18 C        4.7990     5.1800     0.8680 C.3   1 <1>   0.3430 
 19 C       -3.2440     7.2390    -1.0820 C.3   1 <1>   0.0400 
 20 N        5.0020     3.7640     0.4190 N.4   1 <1>  -0.9590 
 21 C        6.4160     3.3100     0.5050 C.3   1 <1>   0.4230 
 22 C        7.2990     3.9610    -0.5720 C.3   1 <1>  -0.1600 
 23 C        6.4840     1.7800     0.4240 C.3   1 <1>  -0.1600 
 24 C        8.7520     3.4800    -0.4440 C.3   1 <1>  -0.1600 
 25 C        7.9340     1.2930     0.5550 C.3   1 <1>  -0.1600 
 26 C        8.8370     1.9480    -0.4990 C.3   1 <1>  -0.1600 
 27 H        1.5160     2.1400     1.3550 H     1 <1>   0.1500 
 28 H       -3.9080     1.5590    -0.4480 H     1 <1>   0.1500 
 29 H        0.7880     5.2890     1.5300 H     1 <1>   0.0800 
 30 H        0.7650     5.4210    -0.2090 H     1 <1>   0.0800 
 31 H       -1.3400     5.7450    -0.2370 H     1 <1>   0.1500 
 32 H       -4.9380     3.6910    -1.1580 H     1 <1>   0.1500 
 33 H        2.2020     3.1050    -1.1090 H     1 <1>   0.0800 
 34 H        2.6380     4.7290    -1.5310 H     1 <1>   0.0800 
 35 H        3.0650     5.7830     1.9910 H     1 <1>   0.0800 
 36 H        3.0910     6.3970     0.3670 H     1 <1>   0.0800 
 37 H        4.7830     4.0630    -1.6790 H     1 <1>   0.0800 
 38 H        4.3450     2.4700    -1.1370 H     1 <1>   0.0800 
 39 H        5.2710     5.8560     0.1740 H     1 <1>   0.0800 
 40 H        5.2570     5.3300     1.8320 H     1 <1>   0.0800 
 41 H       -3.9570     7.9630    -1.4330 H     1 <1>   0.0800 
 42 H       -2.3760     7.2460    -1.7160 H     1 <1>   0.0800 
 43 H       -2.9820     7.4530    -0.0610 H     1 <1>   0.0800 
 44 H        4.4460     3.2190     1.0950 H     1 <1>   0.4500 
 45 H        6.8080     3.5960     1.4680 H     1 <1>   0.0800 
 46 H        7.2850     5.0310    -0.4710 H     1 <1>   0.0800 
 47 H        6.9470     3.7020    -1.5540 H     1 <1>   0.0800 
 48 H        5.9000     1.3440     1.2150 H     1 <1>   0.0800 
 49 H        6.0990     1.4340    -0.5190 H     1 <1>   0.0800 
 50 H        9.3450     3.8990    -1.2410 H     1 <1>   0.0800 
 51 H        9.1690     3.8250     0.4870 H     1 <1>   0.0800 
 52 H        7.9700     0.2220     0.4400 H     1 <1>   0.0800 
 53 H        8.3090     1.5260     1.5380 H     1 <1>   0.0800 
 54 H        9.8570     1.6400    -0.3400 H     1 <1>   0.0800 
 55 H        8.5480     1.6080    -1.4800 H     1 <1>   0.0800 
@<TRIPOS>BOND
  1   1   2  2   
  2   2   3  1   
  3   2   4  1   
  4   3   5  1   
  5   4   6  2   
  6   4  27  1   
  7   5   7  ar  
  8   5   8  ar  
  9   6   7  1   
 10   6   9  1   
 11   7  10  ar  
 12   8  11  ar  
 13   8  28  1   
 14   9  12  1   
 15   9  29  1   
 16   9  30  1   
 17  10  13  ar  
 18  10  31  1   
 19  11  13  ar  
 20  11  32  1   
 21  12  14  1   
 22  12  15  1   
 23  13  16  1   
 24  14  17  1   
 25  14  33  1   
 26  14  34  1   
 27  15  18  1   
 28  15  35  1   
 29  15  36  1   
 30  16  19  1   
 31  17  20  1   
 32  17  37  1   
 33  17  38  1   
 34  18  20  1   
 35  18  39  1   
 36  18  40  1   
 37  19  41  1   
 38  19  42  1   
 39  19  43  1   
 40  20  21  1   
 41  20  44  1   
 42  21  22  1   
 43  21  23  1   
 44  21  45  1   
 45  22  24  1   
 46  22  46  1   
 47  22  47  1   
 48  23  25  1   
 49  23  48  1   
 50  23  49  1   
 51  24  26  1   
 52  24  50  1   
 53  24  51  1   
 54  25  26  1   
 55  25  52  1   
 56  25  53  1   
 57  26  54  1   
 58  26  55  1   
@<TRIPOS>SUBSTRUCTURE
  1 ****  12 GROUP 4 **** **** 0

# MOE 2024.06 (io_trps.svl 2023.06)
