@<TRIPOS>MOLECULE
Adamantane-1-carboxylic acid (3-m-tolyl-[1,2,4]oxadiazol-5-ylmethyl)-amide
51 55 1 0 0 
SMALL
USER_CHARGES


@<TRIPOS>ATOM
  1 O       -0.0610     0.8060     1.7290 O.2   1 <1>  -0.5700 
  2 C        0.2930     1.5020     0.8060 C.2   1 <1>   0.5690 
  3 N        1.5660     1.4200     0.3430 N.am  1 <1>  -0.7300 
  4 C       -0.7110     2.4830     0.1630 C.3   1 <1>   0.0610 
  5 C        2.6290     0.5740     0.9460 C.3   1 <1>   0.3200 
  6 C       -1.9410     1.7070    -0.3710 C.3   1 <1>  -0.1600 
  7 C       -0.1000     3.2840    -1.0220 C.3   1 <1>  -0.1600 
  8 C       -1.2000     3.5010     1.2230 C.3   1 <1>  -0.1600 
  9 C        3.9080     1.3710     1.1540 C.2   1 <1>   0.2980 
 10 C       -2.9830     2.6660    -0.9760 C.3   1 <1>  -0.0800 
 11 C       -1.1330     4.2500    -1.6300 C.3   1 <1>  -0.0800 
 12 C       -2.2390     4.4690     0.6260 C.3   1 <1>  -0.0800 
 13 O        3.9380     2.2630     2.1080 O.3   1 <1>  -0.0190 
 14 N        4.9750     1.2620     0.4750 N.2   1 <1>  -0.5650 
 15 C       -2.3410     3.4430    -2.1390 C.3   1 <1>  -0.1600 
 16 C       -3.4420     3.6600     0.1060 C.3   1 <1>  -0.1600 
 17 C       -1.6010     5.2370    -0.5460 C.3   1 <1>  -0.1600 
 18 N        5.1290     2.7670     2.0300 N.2   1 <1>  -0.4100 
 19 C        5.7490     2.1800     1.0670 C.2   1 <1>   0.4620 
 20 C        7.1130     2.4520     0.6460 C.ar  1 <1>   0.0540 
 21 C        7.7120     1.7550    -0.4070 C.ar  1 <1>  -0.1500 
 22 C        7.8840     3.4280     1.2800 C.ar  1 <1>  -0.1500 
 23 C        9.0110     2.0120    -0.8110 C.ar  1 <1>  -0.1440 
 24 C        9.1810     3.6950     0.8840 C.ar  1 <1>  -0.1500 
 25 C        9.7460     2.9890    -0.1620 C.ar  1 <1>  -0.1500 
 26 C        9.6270     1.2350    -1.9610 C.3   1 <1>  -0.0970 
 27 H        1.8640     2.0170    -0.4300 H     1 <1>   0.3700 
 28 H        2.8330    -0.2510     0.2880 H     1 <1>   0.0800 
 29 H        2.3030     0.1780     1.8920 H     1 <1>   0.0800 
 30 H       -2.3940     1.1520     0.4330 H     1 <1>   0.0800 
 31 H       -1.6270     0.9960    -1.1140 H     1 <1>   0.0800 
 32 H        0.2370     2.6060    -1.7870 H     1 <1>   0.0800 
 33 H        0.7490     3.8520    -0.6810 H     1 <1>   0.0800 
 34 H       -1.6410     2.9740     2.0530 H     1 <1>   0.0800 
 35 H       -0.3630     4.0580     1.6050 H     1 <1>   0.0800 
 36 H       -3.8290     2.1050    -1.3360 H     1 <1>   0.0800 
 37 H       -0.6890     4.7930    -2.4470 H     1 <1>   0.0800 
 38 H       -2.5660     5.1630     1.3810 H     1 <1>   0.0800 
 39 H       -3.0660     4.1090    -2.5750 H     1 <1>   0.0800 
 40 H       -2.0270     2.7580    -2.9070 H     1 <1>   0.0800 
 41 H       -3.9000     3.1260     0.9210 H     1 <1>   0.0800 
 42 H       -4.1810     4.3280    -0.3020 H     1 <1>   0.0800 
 43 H       -2.3170     5.9240    -0.9630 H     1 <1>   0.0800 
 44 H       -0.7650     5.8150    -0.1910 H     1 <1>   0.0800 
 45 H        7.1450     0.9970    -0.9170 H     1 <1>   0.1500 
 46 H        7.4610     3.9880     2.0960 H     1 <1>   0.1500 
 47 H        9.7540     4.4540     1.3890 H     1 <1>   0.1500 
 48 H       10.7560     3.2020    -0.4660 H     1 <1>   0.1500 
 49 H        9.5020     1.7820    -2.8780 H     1 <1>   0.0800 
 50 H        9.1570     0.2740    -2.0630 H     1 <1>   0.0800 
 51 H       10.6770     1.0820    -1.7880 H     1 <1>   0.0800 
@<TRIPOS>BOND
  1   1   2  2   
  2   2   3  am  
  3   2   4  1   
  4   3   5  1   
  5   3  27  1   
  6   4   6  1   
  7   4   7  1   
  8   4   8  1   
  9   5   9  1   
 10   5  28  1   
 11   5  29  1   
 12   6  10  1   
 13   6  30  1   
 14   6  31  1   
 15   7  11  1   
 16   7  32  1   
 17   7  33  1   
 18   8  12  1   
 19   8  34  1   
 20   8  35  1   
 21   9  13  1   
 22   9  14  2   
 23  10  15  1   
 24  10  16  1   
 25  10  36  1   
 26  11  15  1   
 27  11  17  1   
 28  11  37  1   
 29  12  16  1   
 30  12  17  1   
 31  12  38  1   
 32  13  18  1   
 33  14  19  1   
 34  15  39  1   
 35  15  40  1   
 36  16  41  1   
 37  16  42  1   
 38  17  43  1   
 39  17  44  1   
 40  18  19  2   
 41  19  20  1   
 42  20  21  ar  
 43  20  22  ar  
 44  21  23  ar  
 45  21  45  1   
 46  22  24  ar  
 47  22  46  1   
 48  23  25  ar  
 49  23  26  1   
 50  24  25  ar  
 51  24  47  1   
 52  25  48  1   
 53  26  49  1   
 54  26  50  1   
 55  26  51  1   
@<TRIPOS>SUBSTRUCTURE
  1 ****   3 GROUP 4 **** **** 0

# MOE 2024.06 (io_trps.svl 2023.06)
