@<TRIPOS>MOLECULE
2-Cyclohexyl-N-(3-m-tolyl-[1,2,4]oxadiazol-5-ylmethyl)-acetamide
46 48 1 0 0 
SMALL
USER_CHARGES


@<TRIPOS>ATOM
  1 O       -0.0670     2.0550    -2.8750 O.2   1 <1>  -0.5700 
  2 C        0.1680     2.2490    -1.7090 C.2   1 <1>   0.5690 
  3 N        1.3800     1.9730    -1.1740 N.am  1 <1>  -0.7300 
  4 C       -0.9150     2.8230    -0.8170 C.3   1 <1>  -0.0990 
  5 C        2.5350     1.4540    -1.9530 C.3   1 <1>   0.3200 
  6 C       -1.9270     1.7660    -0.3350 C.3   1 <1>  -0.0800 
  7 C        3.8200     2.1830    -1.5900 C.2   1 <1>   0.2980 
  8 C       -3.0700     2.4470     0.4390 C.3   1 <1>  -0.1600 
  9 C       -1.2600     0.6820     0.5340 C.3   1 <1>  -0.1600 
 10 O        3.9580     3.4270    -1.9660 O.3   1 <1>  -0.0190 
 11 N        4.7960     1.6990    -0.9380 N.2   1 <1>  -0.5650 
 12 C       -4.0940     1.4250     0.9510 C.3   1 <1>  -0.1600 
 13 C       -2.2850    -0.3370     1.0500 C.3   1 <1>  -0.1600 
 14 N        5.1240     3.7650    -1.5140 N.2   1 <1>  -0.4100 
 15 C        5.6270     2.7480    -0.9080 C.2   1 <1>   0.4620 
 16 C       -3.4200     0.3530     1.8150 C.3   1 <1>  -0.1600 
 17 C        6.9280     2.7050    -0.2590 C.ar  1 <1>   0.0540 
 18 C        7.4070     1.5460     0.3570 C.ar  1 <1>  -0.1500 
 19 C        7.7550     3.8290    -0.2270 C.ar  1 <1>  -0.1500 
 20 C        8.6450     1.5030     0.9760 C.ar  1 <1>  -0.1430 
 21 C        8.9940     3.7980     0.3860 C.ar  1 <1>  -0.1500 
 22 C        9.4400     2.6360     0.9870 C.ar  1 <1>  -0.1500 
 23 C        9.1370     0.2270     1.6350 C.3   1 <1>  -0.0970 
 24 H        1.5550     2.1330    -0.1810 H     1 <1>   0.3700 
 25 H       -1.4340     3.5740    -1.3860 H     1 <1>   0.0800 
 26 H       -0.4630     3.3110     0.0270 H     1 <1>   0.0800 
 27 H        2.3540     1.5650    -3.0080 H     1 <1>   0.0800 
 28 H        2.6550     0.4060    -1.7420 H     1 <1>   0.0800 
 29 H       -2.3480     1.2890    -1.2060 H     1 <1>   0.0800 
 30 H       -3.5710     3.1530    -0.2010 H     1 <1>   0.0800 
 31 H       -2.6670     2.9880     1.2770 H     1 <1>   0.0800 
 32 H       -0.7710     1.1440     1.3750 H     1 <1>   0.0800 
 33 H       -0.5150     0.1570    -0.0380 H     1 <1>   0.0800 
 34 H       -4.5770     0.9540     0.1120 H     1 <1>   0.0800 
 35 H       -4.8500     1.9290     1.5260 H     1 <1>   0.0800 
 36 H       -1.7960    -1.0470     1.6940 H     1 <1>   0.0800 
 37 H       -2.6970    -0.8790     0.2160 H     1 <1>   0.0800 
 38 H       -4.1500    -0.3790     2.1150 H     1 <1>   0.0800 
 39 H       -3.0250     0.8090     2.7070 H     1 <1>   0.0800 
 40 H        6.7940     0.6620     0.3480 H     1 <1>   0.1500 
 41 H        7.4240     4.7420    -0.6900 H     1 <1>   0.1500 
 42 H        9.6130     4.6790     0.3960 H     1 <1>   0.1500 
 43 H       10.4060     2.6170     1.4620 H     1 <1>   0.1500 
 44 H        8.3190    -0.4440     1.8260 H     1 <1>   0.0800 
 45 H        9.6160     0.4530     2.5700 H     1 <1>   0.0800 
 46 H        9.8450    -0.2650     0.9910 H     1 <1>   0.0800 
@<TRIPOS>BOND
  1   1   2  2   
  2   2   3  am  
  3   2   4  1   
  4   3   5  1   
  5   3  24  1   
  6   4   6  1   
  7   4  25  1   
  8   4  26  1   
  9   5   7  1   
 10   5  27  1   
 11   5  28  1   
 12   6   8  1   
 13   6   9  1   
 14   6  29  1   
 15   7  10  1   
 16   7  11  2   
 17   8  12  1   
 18   8  30  1   
 19   8  31  1   
 20   9  13  1   
 21   9  32  1   
 22   9  33  1   
 23  10  14  1   
 24  11  15  1   
 25  12  16  1   
 26  12  34  1   
 27  12  35  1   
 28  13  16  1   
 29  13  36  1   
 30  13  37  1   
 31  14  15  2   
 32  15  17  1   
 33  16  38  1   
 34  16  39  1   
 35  17  18  ar  
 36  17  19  ar  
 37  18  20  ar  
 38  18  40  1   
 39  19  21  ar  
 40  19  41  1   
 41  20  22  ar  
 42  20  23  1   
 43  21  22  ar  
 44  21  42  1   
 45  22  43  1   
 46  23  44  1   
 47  23  45  1   
 48  23  46  1   
@<TRIPOS>SUBSTRUCTURE
  1 ****   7 GROUP 4 **** **** 0

# MOE 2024.06 (io_trps.svl 2023.06)
