@<TRIPOS>MOLECULE
1-Cyclohexyl-3-propyl-1-(3-p-tolyl-[1,2,4]oxadiazol-5-ylmethyl)-urea
54 56 1 0 0 
SMALL
USER_CHARGES


@<TRIPOS>ATOM
  1 O        0.1930     0.3670    -0.2640 O.2   1 <1>  -0.5700 
  2 C        0.4190     1.5310     0.0070 C.2   1 <1>   0.6900 
  3 N        1.5460     2.1490    -0.4710 N.am  1 <1>  -0.6600 
  4 N       -0.4510     2.2080     0.7910 N.am  1 <1>  -0.7300 
  5 C        1.8730     3.6060    -0.4020 C.3   1 <1>   0.2200 
  6 C        2.5990     1.3180    -1.1410 C.3   1 <1>   0.3200 
  7 C       -1.7120     1.6840     1.3500 C.3   1 <1>   0.1400 
  8 C        2.1870     4.0510     1.0360 C.3   1 <1>  -0.1600 
  9 C        0.7930     4.4760    -1.0650 C.3   1 <1>  -0.1600 
 10 C        3.9240     1.3780    -0.3940 C.2   1 <1>   0.2980 
 11 C       -2.8180     2.7150     1.1240 C.3   1 <1>  -0.1600 
 12 C        2.5600     5.5400     1.0770 C.3   1 <1>  -0.1600 
 13 C        1.1810     5.9610    -1.0110 C.3   1 <1>  -0.1600 
 14 O        4.0100     0.7990     0.7740 O.3   1 <1>  -0.0190 
 15 N        4.9800     1.9620    -0.7930 N.2   1 <1>  -0.5650 
 16 C       -4.1570     2.2270     1.6870 C.3   1 <1>  -0.2400 
 17 C        1.4710     6.4070     0.4290 C.3   1 <1>  -0.1600 
 18 N        5.2250     1.0380     1.1550 N.2   1 <1>  -0.4100 
 19 C        5.8030     1.7240     0.2340 C.2   1 <1>   0.4620 
 20 C        7.1740     2.2070     0.2680 C.ar  1 <1>   0.0540 
 21 C        8.0080     1.9430     1.3560 C.ar  1 <1>  -0.1500 
 22 C        7.7180     2.9540    -0.7780 C.ar  1 <1>  -0.1500 
 23 C        9.3130     2.3980     1.3980 C.ar  1 <1>  -0.1500 
 24 C        9.0220     3.4120    -0.7420 C.ar  1 <1>  -0.1500 
 25 C        9.8300     3.1360     0.3480 C.ar  1 <1>  -0.1440 
 26 C       11.2620     3.6390     0.3910 C.3   1 <1>  -0.0970 
 27 H       -0.2090     3.1660     1.0270 H     1 <1>   0.3700 
 28 H        2.7730     3.7700    -0.9720 H     1 <1>   0.0800 
 29 H        2.7440     1.6850    -2.1410 H     1 <1>   0.0800 
 30 H        2.3030     0.2870    -1.2160 H     1 <1>   0.0800 
 31 H       -1.5810     1.4990     2.4020 H     1 <1>   0.0800 
 32 H       -1.9690     0.7550     0.8690 H     1 <1>   0.0800 
 33 H        3.0100     3.4740     1.4190 H     1 <1>   0.0800 
 34 H        1.3430     3.8940     1.6790 H     1 <1>   0.0800 
 35 H       -0.1530     4.3580    -0.5740 H     1 <1>   0.0800 
 36 H        0.6780     4.1760    -2.0920 H     1 <1>   0.0800 
 37 H       -2.9250     2.8910     0.0680 H     1 <1>   0.0800 
 38 H       -2.5520     3.6400     1.6040 H     1 <1>   0.0800 
 39 H        3.4900     5.6880     0.5550 H     1 <1>   0.0800 
 40 H        2.7070     5.8460     2.0990 H     1 <1>   0.0800 
 41 H        0.3830     6.5570    -1.4200 H     1 <1>   0.0800 
 42 H        2.0560     6.1250    -1.6160 H     1 <1>   0.0800 
 43 H       -4.4540     1.3100     1.2080 H     1 <1>   0.0800 
 44 H       -4.9200     2.9650     1.5130 H     1 <1>   0.0800 
 45 H       -4.0820     2.0560     2.7470 H     1 <1>   0.0800 
 46 H        1.7860     7.4360     0.4290 H     1 <1>   0.0800 
 47 H        0.5680     6.3420     1.0130 H     1 <1>   0.0800 
 48 H        7.6280     1.3700     2.1840 H     1 <1>   0.1500 
 49 H        7.1110     3.1810    -1.6370 H     1 <1>   0.1500 
 50 H        9.9250     2.1760     2.2540 H     1 <1>   0.1500 
 51 H        9.4060     3.9870    -1.5660 H     1 <1>   0.1500 
 52 H       11.2900     4.6160     0.8380 H     1 <1>   0.0800 
 53 H       11.6700     3.6980    -0.6020 H     1 <1>   0.0800 
 54 H       11.8770     2.9740     0.9700 H     1 <1>   0.0800 
@<TRIPOS>BOND
  1   1   2  2   
  2   2   3  am  
  3   2   4  am  
  4   3   5  1   
  5   3   6  1   
  6   4   7  1   
  7   4  27  1   
  8   5   8  1   
  9   5   9  1   
 10   5  28  1   
 11   6  10  1   
 12   6  29  1   
 13   6  30  1   
 14   7  11  1   
 15   7  31  1   
 16   7  32  1   
 17   8  12  1   
 18   8  33  1   
 19   8  34  1   
 20   9  13  1   
 21   9  35  1   
 22   9  36  1   
 23  10  14  1   
 24  10  15  2   
 25  11  16  1   
 26  11  37  1   
 27  11  38  1   
 28  12  17  1   
 29  12  39  1   
 30  12  40  1   
 31  13  17  1   
 32  13  41  1   
 33  13  42  1   
 34  14  18  1   
 35  15  19  1   
 36  16  43  1   
 37  16  44  1   
 38  16  45  1   
 39  17  46  1   
 40  17  47  1   
 41  18  19  2   
 42  19  20  1   
 43  20  21  ar  
 44  20  22  ar  
 45  21  23  ar  
 46  21  48  1   
 47  22  24  ar  
 48  22  49  1   
 49  23  25  ar  
 50  23  50  1   
 51  24  25  ar  
 52  24  51  1   
 53  25  26  1   
 54  26  52  1   
 55  26  53  1   
 56  26  54  1   
@<TRIPOS>SUBSTRUCTURE
  1 ****  10 GROUP 4 **** **** 0

# MOE 2024.06 (io_trps.svl 2023.06)
