@<TRIPOS>MOLECULE
1-(3-Chloro-4-methyl-phenyl)-4-(3,4,5-trimethoxy-phenyl)-4,7-dihydro-1H,3H-furo[
53 56 1 0 0 
SMALL
USER_CHARGES


@<TRIPOS>ATOM
  1 CL      -0.2270     1.0040    -1.5160 Cl    1 <1>  -0.1770 
  2 C       -1.6200     1.3300    -0.5110 C.ar  1 <1>   0.1770 
  3 C       -2.2620     0.2940     0.1530 C.ar  1 <1>  -0.1440 
  4 C       -2.0530     2.6370    -0.4060 C.ar  1 <1>  -0.1500 
  5 C       -3.3630     0.5970     0.9390 C.ar  1 <1>  -0.1500 
  6 C       -1.7740    -1.1420     0.0330 C.3   1 <1>  -0.0960 
  7 C       -3.1610     2.9360     0.3740 C.ar  1 <1>   0.1170 
  8 C       -3.8050     1.9050     1.0480 C.ar  1 <1>  -0.1500 
  9 N       -3.6310     4.2600     0.4630 N.am  1 <1>  -0.2860 
 10 C       -3.4340     5.0240     1.6060 C.2   1 <1>   0.5690 
 11 C       -4.3970     4.7980    -0.5630 C.2   1 <1>  -0.0290 
 12 O       -3.0980     4.5560     2.6640 O.2   1 <1>  -0.5700 
 13 C       -3.6290     6.5330     1.5140 C.3   1 <1>  -0.0990 
 14 C       -4.9680     6.0030    -0.5440 C.2   1 <1>  -0.1240 
 15 C       -4.7690     4.1160    -1.8670 C.3   1 <1>   0.2580 
 16 C       -4.8170     6.9610     0.6250 C.3   1 <1>   0.2020 
 17 C       -5.7240     6.1750    -1.7260 C.2   1 <1>   0.7060 
 18 O       -5.5930     5.0920    -2.4970 O.3   1 <1>  -0.4300 
 19 C       -4.6160     8.4030     0.1700 C.ar  1 <1>  -0.1440 
 20 O       -6.4290     7.0980    -2.0620 O.2   1 <1>  -0.5700 
 21 C       -3.6890     8.7180    -0.8150 C.ar  1 <1>  -0.1500 
 22 C       -5.3630     9.4240     0.7370 C.ar  1 <1>  -0.1500 
 23 C       -3.5130    10.0270    -1.2290 C.ar  1 <1>   0.0830 
 24 C       -5.1970    10.7410     0.3380 C.ar  1 <1>   0.0830 
 25 O       -2.6020    10.2490    -2.2080 O.3   1 <1>  -0.3630 
 26 C       -4.2470    11.0580    -0.6380 C.ar  1 <1>   0.0830 
 27 O       -5.9850    11.6600     0.9560 O.3   1 <1>  -0.3630 
 28 C       -3.1210    10.6730    -3.4490 C.3   1 <1>   0.0400 
 29 O       -4.0200    12.3530    -0.9930 O.3   1 <1>  -0.3630 
 30 C       -6.6940    12.5810     0.1550 C.3   1 <1>   0.0400 
 31 C       -2.8640    12.9290    -0.4330 C.3   1 <1>   0.0400 
 32 H       -1.5280     3.4150    -0.9280 H     1 <1>   0.1500 
 33 H       -3.8800    -0.1810     1.4750 H     1 <1>   0.1500 
 34 H       -0.7620    -1.2160     0.3900 H     1 <1>   0.0800 
 35 H       -1.8020    -1.4570    -0.9950 H     1 <1>   0.0800 
 36 H       -2.3880    -1.8090     0.6110 H     1 <1>   0.0800 
 37 H       -4.6540     2.1320     1.6690 H     1 <1>   0.1500 
 38 H       -2.7180     6.9390     1.1170 H     1 <1>   0.0800 
 39 H       -3.7580     6.9390     2.5010 H     1 <1>   0.0800 
 40 H       -5.3440     3.2200    -1.7080 H     1 <1>   0.0800 
 41 H       -3.9120     3.9250    -2.4880 H     1 <1>   0.0800 
 42 H       -5.7220     6.8950     1.2050 H     1 <1>   0.0800 
 43 H       -3.0940     7.9540    -1.2810 H     1 <1>   0.1500 
 44 H       -6.0940     9.2160     1.4970 H     1 <1>   0.1500 
 45 H       -2.3180    10.6870    -4.1630 H     1 <1>   0.0800 
 46 H       -3.5350    11.6590    -3.3440 H     1 <1>   0.0800 
 47 H       -3.8830     9.9800    -3.7620 H     1 <1>   0.0800 
 48 H       -7.5380    12.9350     0.7180 H     1 <1>   0.0800 
 49 H       -7.0290    12.0860    -0.7400 H     1 <1>   0.0800 
 50 H       -6.0480    13.4050    -0.0870 H     1 <1>   0.0800 
 51 H       -2.8090    13.9540    -0.7520 H     1 <1>   0.0800 
 52 H       -2.0000    12.3880    -0.7760 H     1 <1>   0.0800 
 53 H       -2.9380    12.8780     0.6400 H     1 <1>   0.0800 
@<TRIPOS>BOND
  1   1   2  1   
  2   2   3  ar  
  3   2   4  ar  
  4   3   5  ar  
  5   3   6  1   
  6   4   7  ar  
  7   4  32  1   
  8   5   8  ar  
  9   5  33  1   
 10   6  34  1   
 11   6  35  1   
 12   6  36  1   
 13   7   8  ar  
 14   7   9  1   
 15   8  37  1   
 16   9  10  am  
 17   9  11  1   
 18  10  12  2   
 19  10  13  1   
 20  11  14  2   
 21  11  15  1   
 22  13  16  1   
 23  13  38  1   
 24  13  39  1   
 25  14  16  1   
 26  14  17  1   
 27  15  18  1   
 28  15  40  1   
 29  15  41  1   
 30  16  19  1   
 31  16  42  1   
 32  17  18  1   
 33  17  20  2   
 34  19  21  ar  
 35  19  22  ar  
 36  21  23  ar  
 37  21  43  1   
 38  22  24  ar  
 39  22  44  1   
 40  23  25  1   
 41  23  26  ar  
 42  24  26  ar  
 43  24  27  1   
 44  25  28  1   
 45  26  29  1   
 46  27  30  1   
 47  28  45  1   
 48  28  46  1   
 49  28  47  1   
 50  29  31  1   
 51  30  48  1   
 52  30  49  1   
 53  30  50  1   
 54  31  51  1   
 55  31  52  1   
 56  31  53  1   
@<TRIPOS>SUBSTRUCTURE
  1 ****  14 GROUP 4 **** **** 0

# MOE 2024.06 (io_trps.svl 2023.06)
