@<TRIPOS>MOLECULE
6-(5-Methyl-2-oxo-imidazolidin-4-yl)-hexanoic acid (3,5-dimethyl-phenyl)-amide
50 51 1 0 0 
SMALL
USER_CHARGES


@<TRIPOS>ATOM
  1 O        0.3910    -2.6800     3.2790 O.2   1 <1>  -0.5700 
  2 C        0.4140    -3.1920     2.1830 C.2   1 <1>   0.6900 
  3 N        1.5190    -3.3380     1.4430 N.am  1 <1>  -0.7300 
  4 N       -0.6760    -3.5760     1.5080 N.am  1 <1>  -0.7300 
  5 C        1.1900    -3.7230     0.0590 C.3   1 <1>   0.2200 
  6 C       -0.3600    -3.8260     0.0950 C.3   1 <1>   0.2200 
  7 C        1.8690    -5.0550    -0.2940 C.3   1 <1>  -0.1600 
  8 C       -1.0540    -2.7620    -0.7540 C.3   1 <1>  -0.2400 
  9 C        3.4030    -4.9550    -0.3310 C.3   1 <1>  -0.1600 
 10 C        4.0320    -6.2800    -0.7810 C.3   1 <1>  -0.1600 
 11 C        5.5620    -6.1770    -0.8460 C.3   1 <1>  -0.1600 
 12 C        6.1920    -7.4940    -1.3320 C.3   1 <1>  -0.0990 
 13 C        7.7030    -7.4000    -1.4390 C.2   1 <1>   0.5690 
 14 O        8.1840    -7.1800    -2.5230 O.2   1 <1>  -0.5700 
 15 N        8.4270    -7.5780    -0.2930 N.am  1 <1>  -0.5470 
 16 C        9.8090    -7.5340    -0.0450 C.ar  1 <1>   0.1170 
 17 C       10.2880    -8.1020     1.1300 C.ar  1 <1>  -0.1500 
 18 C       10.7220    -6.9370    -0.9080 C.ar  1 <1>  -0.1500 
 19 C       11.6360    -8.0810     1.4400 C.ar  1 <1>  -0.1440 
 20 C       12.0740    -6.9100    -0.6120 C.ar  1 <1>  -0.1440 
 21 C       12.5260    -7.4830     0.5640 C.ar  1 <1>  -0.1500 
 22 C       12.1520    -8.7040     2.7260 C.3   1 <1>  -0.0970 
 23 C       13.0570    -6.2560    -1.5660 C.3   1 <1>  -0.0970 
 24 H        2.3600    -2.8190     1.6860 H     1 <1>   0.3700 
 25 H       -1.5820    -3.2190     1.8020 H     1 <1>   0.3700 
 26 H        1.5030    -2.9510    -0.6240 H     1 <1>   0.0800 
 27 H       -0.6930    -4.8110    -0.1880 H     1 <1>   0.0800 
 28 H        1.5180    -5.3660    -1.2620 H     1 <1>   0.0800 
 29 H        1.5690    -5.8040     0.4190 H     1 <1>   0.0800 
 30 H       -0.7460    -1.7760    -0.4510 H     1 <1>   0.0800 
 31 H       -2.1210    -2.8470    -0.6560 H     1 <1>   0.0800 
 32 H       -0.7990    -2.8970    -1.7900 H     1 <1>   0.0800 
 33 H        3.7720    -4.7010     0.6480 H     1 <1>   0.0800 
 34 H        3.6950    -4.1730    -1.0120 H     1 <1>   0.0800 
 35 H        3.6520    -6.5420    -1.7540 H     1 <1>   0.0800 
 36 H        3.7520    -7.0600    -0.0920 H     1 <1>   0.0800 
 37 H        5.9500    -5.9280     0.1270 H     1 <1>   0.0800 
 38 H        5.8400    -5.3890    -1.5260 H     1 <1>   0.0800 
 39 H        5.8030    -7.7380    -2.3050 H     1 <1>   0.0800 
 40 H        5.9340    -8.2960    -0.6660 H     1 <1>   0.0800 
 41 H        7.8700    -7.8050     0.5260 H     1 <1>   0.3700 
 42 H        9.5970    -8.5670     1.8070 H     1 <1>   0.1500 
 43 H       10.3750    -6.4840    -1.8180 H     1 <1>   0.1500 
 44 H       13.5760    -7.4620     0.7990 H     1 <1>   0.1500 
 45 H       11.3780    -9.2630     3.2210 H     1 <1>   0.0800 
 46 H       12.5000    -7.9330     3.3890 H     1 <1>   0.0800 
 47 H       12.9670    -9.3700     2.5090 H     1 <1>   0.0800 
 48 H       12.6240    -6.1520    -2.5450 H     1 <1>   0.0800 
 49 H       13.9460    -6.8550    -1.6500 H     1 <1>   0.0800 
 50 H       13.3250    -5.2820    -1.2000 H     1 <1>   0.0800 
@<TRIPOS>BOND
  1   1   2  2   
  2   2   3  am  
  3   2   4  am  
  4   3   5  1   
  5   3  24  1   
  6   4   6  1   
  7   4  25  1   
  8   5   6  1   
  9   5   7  1   
 10   5  26  1   
 11   6   8  1   
 12   6  27  1   
 13   7   9  1   
 14   7  28  1   
 15   7  29  1   
 16   8  30  1   
 17   8  31  1   
 18   8  32  1   
 19   9  10  1   
 20   9  33  1   
 21   9  34  1   
 22  10  11  1   
 23  10  35  1   
 24  10  36  1   
 25  11  12  1   
 26  11  37  1   
 27  11  38  1   
 28  12  13  1   
 29  12  39  1   
 30  12  40  1   
 31  13  14  2   
 32  13  15  am  
 33  15  16  1   
 34  15  41  1   
 35  16  17  ar  
 36  16  18  ar  
 37  17  19  ar  
 38  17  42  1   
 39  18  20  ar  
 40  18  43  1   
 41  19  21  ar  
 42  19  22  1   
 43  20  21  ar  
 44  20  23  1   
 45  21  44  1   
 46  22  45  1   
 47  22  46  1   
 48  22  47  1   
 49  23  48  1   
 50  23  49  1   
 51  23  50  1   
@<TRIPOS>SUBSTRUCTURE
  1 ****  11 GROUP 4 **** **** 0

# MOE 2024.06 (io_trps.svl 2023.06)
