@<TRIPOS>MOLECULE
5-Ethyl-2-(4-hydroxy-3-methoxy-phenyl)-7-methyl-1,3-diaza-tricyclo[3.3.1.1*3,7*]
48 51 1 0 0 
SMALL
USER_CHARGES


@<TRIPOS>ATOM
  1 O        0.5900    -0.2280    -0.4850 O.2   1 <1>  -0.5700 
  2 C        1.4800    -0.9060    -0.0700 C.2   1 <1>   0.4480 
  3 C        1.7670    -2.3250    -0.5670 C.3   1 <1>   0.0610 
  4 C        2.4110    -0.4370     1.0500 C.3   1 <1>   0.0610 
  5 C        1.6160    -3.2520     0.6450 C.3   1 <1>   0.3430 
  6 C        3.2470    -2.3730    -0.9700 C.3   1 <1>   0.1100 
  7 C        0.8850    -2.7890    -1.7550 C.3   1 <1>  -0.1600 
  8 C        2.2050    -1.4210     2.2080 C.3   1 <1>   0.3430 
  9 C        3.8590    -0.5980     0.5650 C.3   1 <1>   0.1100 
 10 C        2.1490     1.0130     1.5070 C.3   1 <1>  -0.2400 
 11 N        2.5300    -2.8160     1.7600 N.4   1 <1>  -0.9590 
 12 N        4.0880    -2.0070     0.1940 N.3   1 <1>  -0.8100 
 13 C       -0.5930    -3.0390    -1.4100 C.3   1 <1>  -0.2400 
 14 C        3.9520    -2.9110     1.3480 C.3   1 <1>   0.8360 
 15 C        4.3600    -4.3630     1.0480 C.ar  1 <1>  -0.1440 
 16 C        5.3300    -4.6290     0.0860 C.ar  1 <1>  -0.1500 
 17 C        3.8120    -5.4440     1.7360 C.ar  1 <1>  -0.1500 
 18 C        5.7290    -5.9170    -0.2280 C.ar  1 <1>   0.0820 
 19 C        4.1980    -6.7400     1.4400 C.ar  1 <1>  -0.1500 
 20 O        6.6770    -5.9830    -1.2070 O.3   1 <1>  -0.3620 
 21 C        5.1440    -6.9910     0.4600 C.ar  1 <1>   0.0820 
 22 C        7.3600    -7.1710    -1.5410 C.3   1 <1>   0.0400 
 23 O        5.4480    -8.2830     0.2200 O.3   1 <1>  -0.5330 
 24 H        1.8510    -4.2610     0.3470 H     1 <1>   0.0800 
 25 H        0.5920    -3.2300     0.9820 H     1 <1>   0.0800 
 26 H        3.5070    -3.3570    -1.3230 H     1 <1>   0.0800 
 27 H        3.4320    -1.6850    -1.7800 H     1 <1>   0.0800 
 28 H        1.2860    -3.6980    -2.1700 H     1 <1>   0.0800 
 29 H        0.9310    -2.0420    -2.5310 H     1 <1>   0.0800 
 30 H        1.1810    -1.3680     2.5410 H     1 <1>   0.0800 
 31 H        2.8420    -1.1400     3.0310 H     1 <1>   0.0800 
 32 H        4.5550    -0.3060     1.3350 H     1 <1>   0.0800 
 33 H        4.0360     0.0350    -0.2910 H     1 <1>   0.0800 
 34 H        1.1360     1.1230     1.8560 H     1 <1>   0.0800 
 35 H        2.2860     1.6910     0.6820 H     1 <1>   0.0800 
 36 H        2.8180     1.3010     2.2980 H     1 <1>   0.0800 
 37 H        2.4290    -3.4610     2.5460 H     1 <1>   0.4500 
 38 H       -0.7110    -3.8620    -0.7280 H     1 <1>   0.0800 
 39 H       -1.1320    -3.2820    -2.3100 H     1 <1>   0.0800 
 40 H       -1.0500    -2.1610    -0.9860 H     1 <1>   0.0800 
 41 H        4.5860    -2.5490     2.1420 H     1 <1>   0.0800 
 42 H        5.8060    -3.8250    -0.4500 H     1 <1>   0.1500 
 43 H        3.0840    -5.3140     2.5150 H     1 <1>   0.1500 
 44 H        3.7570    -7.5590     1.9800 H     1 <1>   0.1500 
 45 H        8.1240    -6.9280    -2.2560 H     1 <1>   0.0800 
 46 H        6.6620    -7.8640    -1.9740 H     1 <1>   0.0800 
 47 H        7.8060    -7.5790    -0.6520 H     1 <1>   0.0800 
 48 H        4.9740    -8.9120     0.7930 H     1 <1>   0.4500 
@<TRIPOS>BOND
  1   1   2  2   
  2   2   3  1   
  3   2   4  1   
  4   3   5  1   
  5   3   6  1   
  6   3   7  1   
  7   4   8  1   
  8   4   9  1   
  9   4  10  1   
 10   5  11  1   
 11   5  24  1   
 12   5  25  1   
 13   6  12  1   
 14   6  26  1   
 15   6  27  1   
 16   7  13  1   
 17   7  28  1   
 18   7  29  1   
 19   8  11  1   
 20   8  30  1   
 21   8  31  1   
 22   9  12  1   
 23   9  32  1   
 24   9  33  1   
 25  10  34  1   
 26  10  35  1   
 27  10  36  1   
 28  11  14  1   
 29  11  37  1   
 30  12  14  1   
 31  13  38  1   
 32  13  39  1   
 33  13  40  1   
 34  14  15  1   
 35  14  41  1   
 36  15  16  ar  
 37  15  17  ar  
 38  16  18  ar  
 39  16  42  1   
 40  17  19  ar  
 41  17  43  1   
 42  18  20  1   
 43  18  21  ar  
 44  19  21  ar  
 45  19  44  1   
 46  20  22  1   
 47  21  23  1   
 48  22  45  1   
 49  22  46  1   
 50  22  47  1   
 51  23  48  1   
@<TRIPOS>SUBSTRUCTURE
  1 ****  14 GROUP 4 **** **** 0

# MOE 2024.06 (io_trps.svl 2023.06)
