@<TRIPOS>MOLECULE
4-(Dibenzofuran-2-sulfonyl)-2,6-dimethyl-morpholine
43 46 1 0 0 
SMALL
USER_CHARGES


@<TRIPOS>ATOM
  1 S        0.1070    -0.1710    -1.9820 S.o2  1 <1>   1.4470 
  2 O        0.6090     1.1510    -2.2920 O.2   1 <1>  -0.6500 
  3 O        0.2230    -1.2280    -2.9620 O.2   1 <1>  -0.6500 
  4 N        0.9450    -0.6920    -0.6050 N.am  1 <1>  -0.8490 
  5 C       -1.6100    -0.0750    -1.4030 C.ar  1 <1>  -0.0090 
  6 C        2.2560    -1.2680    -0.9760 C.3   1 <1>   0.1960 
  7 C        1.0760     0.3560     0.4330 C.3   1 <1>   0.1960 
  8 C       -2.2110    -1.1640    -0.7870 C.ar  1 <1>  -0.1500 
  9 C       -2.3580     1.1000    -1.5670 C.ar  1 <1>  -0.1500 
 10 C        3.2760    -1.2280     0.1840 C.3   1 <1>   0.2000 
 11 C        2.4720     1.0220     0.4440 C.3   1 <1>   0.2000 
 12 C       -3.5250    -1.0830    -0.3370 C.ar  1 <1>   0.0000 
 13 C       -3.6650     1.1940    -1.1260 C.ar  1 <1>  -0.1500 
 14 O        3.4880     0.0780     0.6550 O.3   1 <1>  -0.5600 
 15 C        4.6400    -1.7760    -0.2260 C.3   1 <1>  -0.2400 
 16 C        2.6060     2.0690     1.5460 C.3   1 <1>  -0.2400 
 17 C       -4.2320     0.0910    -0.5110 C.ar  1 <1>   0.1400 
 18 C       -4.4200    -1.9680     0.3160 C.ar  1 <1>   0.0000 
 19 O       -5.4730    -0.0100    -0.0180 O.3   1 <1>  -0.2800 
 20 C       -5.5910    -1.2500     0.4810 C.ar  1 <1>   0.1400 
 21 C       -4.3500    -3.2810     0.7720 C.ar  1 <1>  -0.1500 
 22 C       -6.7070    -1.7990     1.0940 C.ar  1 <1>  -0.1500 
 23 C       -5.4580    -3.8400     1.3850 C.ar  1 <1>  -0.1500 
 24 C       -6.6320    -3.1040     1.5460 C.ar  1 <1>  -0.1500 
 25 H        2.6770    -0.7230    -1.8060 H     1 <1>   0.0800 
 26 H        2.1110    -2.2850    -1.2980 H     1 <1>   0.0800 
 27 H        0.9150    -0.0950     1.3970 H     1 <1>   0.0800 
 28 H        0.3190     1.1110     0.3070 H     1 <1>   0.0800 
 29 H       -1.6620    -2.0810    -0.6520 H     1 <1>   0.1500 
 30 H       -1.9010     1.9480    -2.0500 H     1 <1>   0.1500 
 31 H        2.8920    -1.8080     1.0050 H     1 <1>   0.0800 
 32 H        2.6510     1.4880    -0.5110 H     1 <1>   0.0800 
 33 H       -4.2440     2.0930    -1.2490 H     1 <1>   0.1500 
 34 H        5.0540    -1.1870    -1.0250 H     1 <1>   0.0800 
 35 H        4.5470    -2.7940    -0.5570 H     1 <1>   0.0800 
 36 H        5.3090    -1.7510     0.6150 H     1 <1>   0.0800 
 37 H        2.4600     1.6180     2.5110 H     1 <1>   0.0800 
 38 H        1.8750     2.8460     1.4100 H     1 <1>   0.0800 
 39 H        3.5840     2.5130     1.5060 H     1 <1>   0.0800 
 40 H       -3.4440    -3.8450     0.6450 H     1 <1>   0.1500 
 41 H       -7.6000    -1.2110     1.2060 H     1 <1>   0.1500 
 42 H       -5.4190    -4.8550     1.7430 H     1 <1>   0.1500 
 43 H       -7.4820    -3.5570     2.0260 H     1 <1>   0.1500 
@<TRIPOS>BOND
  1   1   2  2   
  2   1   3  2   
  3   1   4  am  
  4   1   5  1   
  5   4   6  1   
  6   4   7  1   
  7   5   8  ar  
  8   5   9  ar  
  9   6  10  1   
 10   6  25  1   
 11   6  26  1   
 12   7  11  1   
 13   7  27  1   
 14   7  28  1   
 15   8  12  ar  
 16   8  29  1   
 17   9  13  ar  
 18   9  30  1   
 19  10  14  1   
 20  10  15  1   
 21  10  31  1   
 22  11  14  1   
 23  11  16  1   
 24  11  32  1   
 25  12  17  ar  
 26  12  18  1   
 27  13  17  ar  
 28  13  33  1   
 29  15  34  1   
 30  15  35  1   
 31  15  36  1   
 32  16  37  1   
 33  16  38  1   
 34  16  39  1   
 35  17  19  1   
 36  18  20  ar  
 37  18  21  ar  
 38  19  20  1   
 39  20  22  ar  
 40  21  23  ar  
 41  21  40  1   
 42  22  24  ar  
 43  22  41  1   
 44  23  24  ar  
 45  23  42  1   
 46  24  43  1   
@<TRIPOS>SUBSTRUCTURE
  1 ****   8 GROUP 4 **** **** 0

# MOE 2024.06 (io_trps.svl 2023.06)
