@<TRIPOS>MOLECULE
6-Methyl-2-[(Z)-3-morpholin-4-yl-propylimino]-10-oxo-1,10-dihydro-2H-1,9,10a-tri
54 57 1 0 0 
SMALL
USER_CHARGES


@<TRIPOS>ATOM
  1 O        0.0370    -1.8030    -1.6570 O.2   1 <1>  -0.5700 
  2 C        0.4820    -2.7620    -1.0450 C.2   1 <1>   0.5440 
  3 N       -0.3490    -3.8070    -0.6720 N.am  1 <1>  -0.2290 
  4 C        1.8590    -2.8290    -0.7030 C.ar  1 <1>   0.0860 
  5 C        0.2000    -4.8850     0.0200 C.2   1 <1>   0.4960 
  6 C       -1.7100    -3.8100    -0.9770 C.2   1 <1>  -0.0410 
  7 C        2.2890    -3.9510     0.0130 C.ar  1 <1>   0.4890 
  8 C        2.7990    -1.8640    -1.0430 C.ar  1 <1>  -0.1500 
  9 N        1.4640    -4.9700     0.3370 N.2   1 <1>  -0.6290 
 10 C       -0.6770    -5.9430     0.3890 C.2   1 <1>  -0.1360 
 11 C       -2.5330    -4.8290    -0.6200 C.2   1 <1>  -0.1380 
 12 N        3.5450    -4.1180     0.4120 N.ar  1 <1>  -0.6200 
 13 C        4.1170    -2.0230    -0.6540 C.ar  1 <1>   0.0860 
 14 C       -2.0000    -5.9310     0.0860 C.2   1 <1>  -0.1500 
 15 C       -4.0150    -4.8310    -0.9520 C.3   1 <1>  -0.1020 
 16 C        4.4200    -3.1870     0.0960 C.ar  1 <1>   0.4100 
 17 C        5.1310    -1.0500    -0.9990 C.2   1 <1>   0.5440 
 18 N        5.6880    -3.4570     0.5410 N.pl3 1 <1>  -0.8690 
 19 O        6.3120    -1.3330    -1.0520 O.2   1 <1>  -0.5700 
 20 N        4.8300     0.2380    -1.2890 N.am  1 <1>  -0.8000 
 21 C        5.9890    -3.7860     1.9590 C.3   1 <1>   0.2090 
 22 C        6.7940    -5.0890     2.0550 C.3   1 <1>  -0.1600 
 23 C        5.9740    -6.3550     1.7790 C.3   1 <1>   0.3430 
 24 N        5.4140    -6.3320     0.4130 N.4   1 <1>  -0.9590 
 25 C        4.2350    -7.2420     0.2440 C.3   1 <1>   0.3430 
 26 C        6.4260    -6.5120    -0.6760 C.3   1 <1>   0.3430 
 27 C        3.6940    -7.2050    -1.1990 C.3   1 <1>   0.1200 
 28 C        5.7580    -6.4870    -2.0630 C.3   1 <1>   0.1200 
 29 O        4.7240    -7.4280    -2.1210 O.3   1 <1>  -0.5600 
 30 H       -2.0870    -2.9550    -1.5170 H     1 <1>   0.1500 
 31 H        2.4860    -1.0080    -1.6170 H     1 <1>   0.1500 
 32 H       -0.2420    -6.7630     0.9280 H     1 <1>   0.1500 
 33 H       -2.6560    -6.7370     0.3700 H     1 <1>   0.1500 
 34 H       -4.5950    -4.8780    -0.0470 H     1 <1>   0.0800 
 35 H       -4.2550    -5.6840    -1.5630 H     1 <1>   0.0800 
 36 H       -4.2890    -3.9400    -1.4870 H     1 <1>   0.0800 
 37 H        6.3930    -2.8070     0.1370 H     1 <1>   0.4000 
 38 H        5.5920     0.8770    -1.5260 H     1 <1>   0.3700 
 39 H        3.9020     0.6550    -1.2190 H     1 <1>   0.3700 
 40 H        5.0770    -3.8680     2.5280 H     1 <1>   0.0800 
 41 H        6.5660    -2.9790     2.3800 H     1 <1>   0.0800 
 42 H        7.1630    -5.1650     3.0620 H     1 <1>   0.0800 
 43 H        7.6560    -5.0380     1.4150 H     1 <1>   0.0800 
 44 H        5.1660    -6.4020     2.4920 H     1 <1>   0.0800 
 45 H        6.5890    -7.2310     1.9090 H     1 <1>   0.0800 
 46 H        5.0410    -5.3580     0.3060 H     1 <1>   0.4500 
 47 H        3.4480    -6.9450     0.9180 H     1 <1>   0.0800 
 48 H        4.5180    -8.2540     0.4790 H     1 <1>   0.0800 
 49 H        6.9320    -7.4540    -0.5540 H     1 <1>   0.0800 
 50 H        7.1590    -5.7240    -0.6260 H     1 <1>   0.0800 
 51 H        3.2390    -6.2550    -1.4140 H     1 <1>   0.0800 
 52 H        2.9560    -7.9750    -1.3370 H     1 <1>   0.0800 
 53 H        6.4750    -6.7400    -2.8240 H     1 <1>   0.0800 
 54 H        5.3560    -5.5120    -2.2780 H     1 <1>   0.0800 
@<TRIPOS>BOND
  1   1   2  2   
  2   2   3  am  
  3   2   4  1   
  4   3   5  1   
  5   3   6  1   
  6   4   7  ar  
  7   4   8  ar  
  8   5   9  2   
  9   5  10  1   
 10   6  11  2   
 11   6  30  1   
 12   7   9  1   
 13   7  12  ar  
 14   8  13  ar  
 15   8  31  1   
 16  10  14  2   
 17  10  32  1   
 18  11  14  1   
 19  11  15  1   
 20  12  16  ar  
 21  13  16  ar  
 22  13  17  1   
 23  14  33  1   
 24  15  34  1   
 25  15  35  1   
 26  15  36  1   
 27  16  18  1   
 28  17  19  2   
 29  17  20  am  
 30  18  21  1   
 31  18  37  1   
 32  20  38  1   
 33  20  39  1   
 34  21  22  1   
 35  21  40  1   
 36  21  41  1   
 37  22  23  1   
 38  22  42  1   
 39  22  43  1   
 40  23  24  1   
 41  23  44  1   
 42  23  45  1   
 43  24  25  1   
 44  24  26  1   
 45  24  46  1   
 46  25  27  1   
 47  25  47  1   
 48  25  48  1   
 49  26  28  1   
 50  26  49  1   
 51  26  50  1   
 52  27  29  1   
 53  27  51  1   
 54  27  52  1   
 55  28  29  1   
 56  28  53  1   
 57  28  54  1   
@<TRIPOS>SUBSTRUCTURE
  1 ****   7 GROUP 4 **** **** 0

# MOE 2024.06 (io_trps.svl 2023.06)
