@<TRIPOS>MOLECULE
8-[2-(2-Methoxy-ethoxy)-phenyl]-1,3,7-trimethyl-1H,8H-imidazo[2,1-f]purine-2,4-d
50 53 1 0 0 
SMALL
USER_CHARGES


@<TRIPOS>ATOM
  1 O        3.3760     2.4970     2.8630 O.2   1 <1>  -0.5750 
  2 C        4.0990     2.3040     1.9070 C.2   1 <1>   0.6860 
  3 N        4.0670     3.1730     0.8200 N.am  1 <1>  -0.4260 
  4 N        4.9530     1.2100     1.9010 N.am  1 <1>  -0.4420 
  5 C        4.8450     2.9410    -0.3080 C.2   1 <1>   0.6990 
  6 C        3.1430     4.3480     0.8570 C.3   1 <1>   0.0520 
  7 C        5.7560     1.0110     0.7950 C.2   1 <1>   0.4210 
  8 C        4.9050     0.2160     3.0150 C.3   1 <1>   0.0520 
  9 O        4.7820     3.6790    -1.2780 O.2   1 <1>  -0.5750 
 10 C        5.7180     1.8140    -0.2950 C.2   1 <1>   0.2710 
 11 N        6.6780     0.0290     0.5950 N.pl3 1 <1>  -0.7040 
 12 N        6.6420     1.2850    -1.2060 N.pl3 1 <1>  -0.6330 
 13 C        7.1800     0.2180    -0.6270 C.cat 1 <1>   1.0690 
 14 C        7.2800     1.4510    -2.4170 C.2   1 <1>   0.2220 
 15 N        8.0880    -0.3730    -1.4210 N.pl3 1 <1>  -0.5550 
 16 C        8.1690     0.4420    -2.5460 C.2   1 <1>   0.1580 
 17 C        8.7110    -1.6200    -1.1610 C.ar  1 <1>   0.3050 
 18 C        9.1480     0.1840    -3.6780 C.3   1 <1>  -0.1090 
 19 C        9.4010    -1.8570     0.0340 C.ar  1 <1>   0.0750 
 20 C        8.6090    -2.6450    -2.0910 C.ar  1 <1>  -0.1570 
 21 O        9.4420    -0.8520     0.9510 O.3   1 <1>  -0.3680 
 22 C       10.0030    -3.0920     0.2570 C.ar  1 <1>  -0.1570 
 23 C        9.2020    -3.8740    -1.8630 C.ar  1 <1>  -0.1570 
 24 C        9.8350    -1.0890     2.2890 C.3   1 <1>   0.1120 
 25 C        9.9010    -4.0940    -0.6910 C.ar  1 <1>  -0.1570 
 26 C        9.5820     0.1710     3.1190 C.3   1 <1>   0.1120 
 27 O        8.2580     0.5970     2.9670 O.3   1 <1>  -0.5650 
 28 C        7.9880     1.7430     3.7170 C.3   1 <1>   0.0320 
 29 H        2.1560     4.0400     0.5590 H     1 <1>   0.0720 
 30 H        3.4820     5.1270     0.1960 H     1 <1>   0.0720 
 31 H        3.0940     4.7530     1.8540 H     1 <1>   0.0720 
 32 H        4.8150     0.7260     3.9590 H     1 <1>   0.0720 
 33 H        5.7970    -0.3830     3.0390 H     1 <1>   0.0720 
 34 H        4.0510    -0.4260     2.8880 H     1 <1>   0.0720 
 35 H        7.2210    -0.4410     1.3290 H     1 <1>   0.4450 
 36 H        7.0580     2.2750    -3.0800 H     1 <1>   0.1430 
 37 H        9.1460     1.0080    -4.3690 H     1 <1>   0.0720 
 38 H       10.1430     0.0710    -3.2860 H     1 <1>   0.0720 
 39 H        8.8830    -0.7070    -4.2160 H     1 <1>   0.0720 
 40 H        8.0590    -2.4950    -3.0010 H     1 <1>   0.1430 
 41 H       10.5560    -3.2990     1.1550 H     1 <1>   0.1430 
 42 H        9.1210    -4.6610    -2.5940 H     1 <1>   0.1430 
 43 H       10.8820    -1.3350     2.3000 H     1 <1>   0.0720 
 44 H        9.2630    -1.9110     2.6820 H     1 <1>   0.0720 
 45 H       10.3670    -5.0500    -0.5160 H     1 <1>   0.1430 
 46 H       10.2420     0.9580     2.7950 H     1 <1>   0.0720 
 47 H        9.7630    -0.0360     4.1600 H     1 <1>   0.0720 
 48 H        6.9720     2.0430     3.5430 H     1 <1>   0.0720 
 49 H        8.6530     2.5340     3.4140 H     1 <1>   0.0720 
 50 H        8.1220     1.5230     4.7630 H     1 <1>   0.0720 
@<TRIPOS>BOND
  1   1   2  2   
  2   2   3  am  
  3   2   4  am  
  4   3   5  am  
  5   3   6  1   
  6   4   7  1   
  7   4   8  1   
  8   5   9  2   
  9   5  10  1   
 10   6  29  1   
 11   6  30  1   
 12   6  31  1   
 13   7  10  2   
 14   7  11  1   
 15   8  32  1   
 16   8  33  1   
 17   8  34  1   
 18  10  12  1   
 19  11  13  ar  
 20  11  35  1   
 21  12  13  ar  
 22  12  14  1   
 23  13  15  ar  
 24  14  16  2   
 25  14  36  1   
 26  15  16  1   
 27  15  17  1   
 28  16  18  1   
 29  17  19  ar  
 30  17  20  ar  
 31  18  37  1   
 32  18  38  1   
 33  18  39  1   
 34  19  21  1   
 35  19  22  ar  
 36  20  23  ar  
 37  20  40  1   
 38  21  24  1   
 39  22  25  ar  
 40  22  41  1   
 41  23  25  ar  
 42  23  42  1   
 43  24  26  1   
 44  24  43  1   
 45  24  44  1   
 46  25  45  1   
 47  26  27  1   
 48  26  46  1   
 49  26  47  1   
 50  27  28  1   
 51  28  48  1   
 52  28  49  1   
 53  28  50  1   
@<TRIPOS>SUBSTRUCTURE
  1 ****  11 GROUP 4 **** **** 0

# MOE 2024.06 (io_trps.svl 2023.06)
