@<TRIPOS>MOLECULE
N-(2-Cyclohex-1-enyl-ethyl)-2-[5-(2-fluoro-phenyl)-tetrazol-2-yl]-acetamide
44 46 1 0 0 
SMALL
USER_CHARGES


@<TRIPOS>ATOM
  1 F        0.7690    -0.9070     0.4810 F     1 <1>  -0.1900 
  2 C        1.1530    -2.0870     0.8900 C.ar  1 <1>   0.1900 
  3 C        2.4430    -2.5320     0.6000 C.ar  1 <1>   0.0540 
  4 C        0.2410    -2.8300     1.6140 C.ar  1 <1>  -0.1500 
  5 C        3.3950    -1.7580    -0.1670 C.2   1 <1>   0.4620 
  6 C        2.7870    -3.7900     1.1000 C.ar  1 <1>  -0.1500 
  7 C        0.6130    -4.0760     2.0870 C.ar  1 <1>  -0.1500 
  8 N        3.0800    -1.1170    -1.2980 N.2   1 <1>  -0.2270 
  9 N        4.6450    -1.6350     0.1460 N.2   1 <1>  -0.7070 
 10 C        1.8880    -4.5510     1.8300 C.ar  1 <1>  -0.1500 
 11 N        4.1450    -0.5620    -1.7150 N.2   1 <1>  -0.4180 
 12 N        5.0830    -0.8800    -0.8440 N.pl3 1 <1>   0.5800 
 13 C        6.4630    -0.4010    -0.9400 C.3   1 <1>   0.1570 
 14 C        7.3800    -1.5370    -1.3220 C.2   1 <1>   0.5690 
 15 O        8.2080    -1.3320    -2.1750 O.2   1 <1>  -0.5700 
 16 N        7.2840    -2.7390    -0.6900 N.am  1 <1>  -0.7300 
 17 C        8.1190    -3.9320    -0.9680 C.3   1 <1>   0.1400 
 18 C        8.7670    -4.4260     0.3270 C.3   1 <1>  -0.0220 
 19 C        9.6040    -5.6940     0.1620 C.2   1 <1>  -0.2760 
 20 C        9.7880    -6.3630    -0.9850 C.2   1 <1>  -0.2880 
 21 C       10.2460    -6.1440     1.4720 C.3   1 <1>  -0.0220 
 22 C       10.6510    -7.6070    -1.1290 C.3   1 <1>  -0.0220 
 23 C       10.7820    -7.5810     1.3930 C.3   1 <1>  -0.1600 
 24 C       11.5590    -7.8080     0.0910 C.3   1 <1>  -0.1600 
 25 H       -0.7420    -2.4370     1.8050 H     1 <1>   0.1500 
 26 H        3.7740    -4.1750     0.9100 H     1 <1>   0.1500 
 27 H       -0.0830    -4.6710     2.6540 H     1 <1>   0.1500 
 28 H        2.1820    -5.5190     2.2000 H     1 <1>   0.1500 
 29 H        6.7580    -0.0010     0.0090 H     1 <1>   0.0800 
 30 H        6.5120     0.3700    -1.6840 H     1 <1>   0.0800 
 31 H        6.5090    -2.8830    -0.0290 H     1 <1>   0.3700 
 32 H        8.8860    -3.6880    -1.6840 H     1 <1>   0.0800 
 33 H        7.4970    -4.7050    -1.3840 H     1 <1>   0.0800 
 34 H        7.9920    -4.6200     1.0470 H     1 <1>   0.0800 
 35 H        9.4000    -3.6450     0.7090 H     1 <1>   0.0800 
 36 H        9.3410    -6.0840    -1.9230 H     1 <1>   0.1500 
 37 H        9.5280    -6.0930     2.2720 H     1 <1>   0.0800 
 38 H       11.0540    -5.4730     1.7080 H     1 <1>   0.0800 
 39 H       11.2620    -7.5220    -2.0100 H     1 <1>   0.0800 
 40 H       10.0070    -8.4610    -1.2490 H     1 <1>   0.0800 
 41 H        9.9540    -8.2670     1.4320 H     1 <1>   0.0800 
 42 H       11.4170    -7.7750     2.2400 H     1 <1>   0.0800 
 43 H       12.3740    -7.1070     0.0420 H     1 <1>   0.0800 
 44 H       11.9710    -8.8020     0.0750 H     1 <1>   0.0800 
@<TRIPOS>BOND
  1   1   2  1   
  2   2   3  ar  
  3   2   4  ar  
  4   3   5  1   
  5   3   6  ar  
  6   4   7  ar  
  7   4  25  1   
  8   5   8  1   
  9   5   9  2   
 10   6  10  ar  
 11   6  26  1   
 12   7  10  ar  
 13   7  27  1   
 14   8  11  2   
 15   9  12  1   
 16  10  28  1   
 17  11  12  1   
 18  12  13  1   
 19  13  14  1   
 20  13  29  1   
 21  13  30  1   
 22  14  15  2   
 23  14  16  am  
 24  16  17  1   
 25  16  31  1   
 26  17  18  1   
 27  17  32  1   
 28  17  33  1   
 29  18  19  1   
 30  18  34  1   
 31  18  35  1   
 32  19  20  2   
 33  19  21  1   
 34  20  22  1   
 35  20  36  1   
 36  21  23  1   
 37  21  37  1   
 38  21  38  1   
 39  22  24  1   
 40  22  39  1   
 41  22  40  1   
 42  23  24  1   
 43  23  41  1   
 44  23  42  1   
 45  24  43  1   
 46  24  44  1   
@<TRIPOS>SUBSTRUCTURE
  1 ****  16 GROUP 4 **** **** 0

# MOE 2024.06 (io_trps.svl 2023.06)
