@<TRIPOS>MOLECULE
N-Ethyl-N-[3-(4-methoxy-phenyl)-[1,2,4]oxadiazol-5-ylmethyl]-2,2-dimethyl-propio
46 47 1 0 0 
SMALL
USER_CHARGES


@<TRIPOS>ATOM
  1 O       -0.5800     3.7730    -1.2840 O.2   1 <1>  -0.5700 
  2 C        0.1070     3.0630    -0.5830 C.2   1 <1>   0.5690 
  3 N        1.3670     2.7110    -1.0320 N.am  1 <1>  -0.6600 
  4 C       -0.5170     2.6100     0.7820 C.3   1 <1>   0.0610 
  5 C        2.2320     1.6040    -0.5150 C.3   1 <1>   0.3200 
  6 C        1.9190     3.3650    -2.2560 C.3   1 <1>   0.1400 
  7 C        0.4430     2.7890     1.9800 C.3   1 <1>  -0.2400 
  8 C       -1.0160     1.1510     0.7150 C.3   1 <1>  -0.2400 
  9 C       -1.7580     3.4720     1.1200 C.3   1 <1>  -0.2400 
 10 C        3.5790     2.0980    -0.0040 C.2   1 <1>   0.2980 
 11 C        2.5250     4.7200    -1.8930 C.3   1 <1>  -0.2400 
 12 O        3.6080     2.8770     1.0440 O.3   1 <1>  -0.0190 
 13 N        4.7110     1.8200    -0.5080 N.2   1 <1>  -0.5650 
 14 N        4.8680     3.1200     1.2220 N.2   1 <1>  -0.4100 
 15 C        5.5250     2.5020     0.3050 C.2   1 <1>   0.4620 
 16 C        6.9690     2.5190     0.1390 C.ar  1 <1>   0.0540 
 17 C        7.6000     1.8100    -0.8860 C.ar  1 <1>  -0.1500 
 18 C        7.7890     3.2500     1.0020 C.ar  1 <1>  -0.1500 
 19 C        8.9740     1.8300    -1.0400 C.ar  1 <1>  -0.1500 
 20 C        9.1640     3.2760     0.8550 C.ar  1 <1>  -0.1500 
 21 C        9.7680     2.5610    -0.1740 C.ar  1 <1>   0.0820 
 22 O       11.1050     2.5300    -0.3920 O.3   1 <1>  -0.3620 
 23 C       12.0010     3.2370     0.4350 C.3   1 <1>   0.0400 
 24 H        2.4100     0.9110    -1.3170 H     1 <1>   0.0800 
 25 H        1.7500     1.0550     0.2630 H     1 <1>   0.0800 
 26 H        1.1330     3.5060    -2.9800 H     1 <1>   0.0800 
 27 H        2.6710     2.7420    -2.7100 H     1 <1>   0.0800 
 28 H        1.2260     2.0610     1.9970 H     1 <1>   0.0800 
 29 H       -0.0890     2.6910     2.9100 H     1 <1>   0.0800 
 30 H        0.8860     3.7690     1.9510 H     1 <1>   0.0800 
 31 H       -0.2230     0.4550     0.5360 H     1 <1>   0.0800 
 32 H       -1.7310     1.0490    -0.0830 H     1 <1>   0.0800 
 33 H       -1.4990     0.8760     1.6360 H     1 <1>   0.0800 
 34 H       -1.4830     4.5110     1.1800 H     1 <1>   0.0800 
 35 H       -2.1970     3.1810     2.0570 H     1 <1>   0.0800 
 36 H       -2.5090     3.3730     0.3560 H     1 <1>   0.0800 
 37 H        1.7740     5.3560    -1.4600 H     1 <1>   0.0800 
 38 H        2.8980     5.1960    -2.7810 H     1 <1>   0.0800 
 39 H        3.3390     4.6070    -1.2020 H     1 <1>   0.0800 
 40 H        7.0070     1.2330    -1.5740 H     1 <1>   0.1500 
 41 H        7.3400     3.8090     1.8050 H     1 <1>   0.1500 
 42 H        9.4410     1.2780    -1.8360 H     1 <1>   0.1500 
 43 H        9.7470     3.8540     1.5470 H     1 <1>   0.1500 
 44 H       12.9980     3.0630     0.0720 H     1 <1>   0.0800 
 45 H       11.9100     2.8720     1.4420 H     1 <1>   0.0800 
 46 H       11.7720     4.2870     0.3820 H     1 <1>   0.0800 
@<TRIPOS>BOND
  1   1   2  2   
  2   2   3  am  
  3   2   4  1   
  4   3   5  1   
  5   3   6  1   
  6   4   7  1   
  7   4   8  1   
  8   4   9  1   
  9   5  10  1   
 10   5  24  1   
 11   5  25  1   
 12   6  11  1   
 13   6  26  1   
 14   6  27  1   
 15   7  28  1   
 16   7  29  1   
 17   7  30  1   
 18   8  31  1   
 19   8  32  1   
 20   8  33  1   
 21   9  34  1   
 22   9  35  1   
 23   9  36  1   
 24  10  12  1   
 25  10  13  2   
 26  11  37  1   
 27  11  38  1   
 28  11  39  1   
 29  12  14  1   
 30  13  15  1   
 31  14  15  2   
 32  15  16  1   
 33  16  17  ar  
 34  16  18  ar  
 35  17  19  ar  
 36  17  40  1   
 37  18  20  ar  
 38  18  41  1   
 39  19  21  ar  
 40  19  42  1   
 41  20  21  ar  
 42  20  43  1   
 43  21  22  1   
 44  22  23  1   
 45  23  44  1   
 46  23  45  1   
 47  23  46  1   
@<TRIPOS>SUBSTRUCTURE
  1 ****  10 GROUP 4 **** **** 0

# MOE 2024.06 (io_trps.svl 2023.06)
