@<TRIPOS>MOLECULE
2,2-Dimethyl-N-(5-methyl-7-oxo-4,7-dihydro-[1,2,4]triazolo[1,5-a]pyrimidin-2-yl)
33 34 1 0 0 
SMALL
USER_CHARGES


@<TRIPOS>ATOM
  1 O       -0.2530    -0.4580     1.5690 O.2   1 <1>  -0.5700 
  2 C       -0.3800    -1.5650     1.0640 C.2   1 <1>   0.5650 
  3 N       -1.6330    -2.0930     0.6680 N.pl3 1 <1>   0.5610 
  4 C        0.7620    -2.3940     0.8480 C.2   1 <1>  -0.1360 
  5 N       -2.8980    -1.6140     0.7160 N.2   1 <1>  -0.7070 
  6 C       -1.7070    -3.3300     0.1160 C.2   1 <1>   0.2700 
  7 C        0.6630    -3.6300     0.2920 C.2   1 <1>  -0.0380 
  8 C       -3.5840    -2.5750     0.2030 C.2   1 <1>   0.5790 
  9 N       -2.9070    -3.6640    -0.1850 N.2   1 <1>  -0.5650 
 10 N       -0.5730    -4.1050    -0.0770 N.pl3 1 <1>  -0.5840 
 11 C        1.8480    -4.5420     0.0440 C.3   1 <1>  -0.1020 
 12 N       -4.9490    -2.5980     0.0190 N.am  1 <1>  -0.4930 
 13 C       -5.9170    -1.6640     0.2330 C.2   1 <1>   0.5690 
 14 O       -5.6830    -0.5550     0.6520 O.2   1 <1>  -0.5700 
 15 C       -7.3910    -2.0370    -0.0790 C.3   1 <1>   0.0610 
 16 C       -8.2400    -1.9140     1.2010 C.3   1 <1>  -0.2400 
 17 C       -7.5590    -3.4760    -0.6170 C.3   1 <1>  -0.2400 
 18 C       -7.9590    -1.0730    -1.1370 C.3   1 <1>  -0.2400 
 19 H        1.7050    -1.9790     1.1520 H     1 <1>   0.1500 
 20 H       -0.7070    -5.0300    -0.5010 H     1 <1>   0.4000 
 21 H        1.9310    -4.7640    -1.0050 H     1 <1>   0.0800 
 22 H        1.7250    -5.4630     0.5870 H     1 <1>   0.0800 
 23 H        2.7610    -4.0760     0.3680 H     1 <1>   0.0800 
 24 H       -5.2570    -3.4850    -0.3580 H     1 <1>   0.3700 
 25 H       -8.1910    -0.9090     1.5840 H     1 <1>   0.0800 
 26 H       -9.2700    -2.1520     1.0060 H     1 <1>   0.0800 
 27 H       -7.8690    -2.5780     1.9610 H     1 <1>   0.0800 
 28 H       -7.0160    -3.6070    -1.5370 H     1 <1>   0.0800 
 29 H       -8.5960    -3.6820    -0.8150 H     1 <1>   0.0800 
 30 H       -7.2120    -4.1970     0.1030 H     1 <1>   0.0800 
 31 H       -7.3870    -1.1350    -2.0460 H     1 <1>   0.0800 
 32 H       -7.9080    -0.0580    -0.7810 H     1 <1>   0.0800 
 33 H       -8.9860    -1.3030    -1.3580 H     1 <1>   0.0800 
@<TRIPOS>BOND
  1   1   2  2   
  2   2   3  1   
  3   2   4  1   
  4   3   5  1   
  5   3   6  1   
  6   4   7  2   
  7   4  19  1   
  8   5   8  2   
  9   6   9  2   
 10   6  10  1   
 11   7  10  1   
 12   7  11  1   
 13   8   9  1   
 14   8  12  1   
 15  10  20  1   
 16  11  21  1   
 17  11  22  1   
 18  11  23  1   
 19  12  13  am  
 20  12  24  1   
 21  13  14  2   
 22  13  15  1   
 23  15  16  1   
 24  15  17  1   
 25  15  18  1   
 26  16  25  1   
 27  16  26  1   
 28  16  27  1   
 29  17  28  1   
 30  17  29  1   
 31  17  30  1   
 32  18  31  1   
 33  18  32  1   
 34  18  33  1   
@<TRIPOS>SUBSTRUCTURE
  1 ****   8 GROUP 4 **** **** 0

# MOE 2024.06 (io_trps.svl 2023.06)
