@<TRIPOS>MOLECULE
5-Chloro-2-(2-methoxy-ethoxy)-phenylamine
25 25 1 0 0 
SMALL
USER_CHARGES


@<TRIPOS>ATOM
  1 CL      -0.1640    -0.1600     0.1660 Cl    1 <1>  -0.1770 
  2 C        1.4080    -0.9140     0.0730 C.ar  1 <1>   0.1770 
  3 C        1.4980    -2.2920     0.0520 C.ar  1 <1>  -0.1500 
  4 C        2.5360    -0.1170     0.0210 C.ar  1 <1>  -0.1500 
  5 C        2.7420    -2.8980    -0.0230 C.ar  1 <1>   0.1000 
  6 C        3.7850    -0.7140    -0.0540 C.ar  1 <1>  -0.1500 
  7 N        2.8270    -4.2850    -0.0450 N.pl3 1 <1>  -0.9000 
  8 C        3.8960    -2.1020    -0.0760 C.ar  1 <1>   0.0830 
  9 O        5.0980    -2.7510    -0.1570 O.3   1 <1>  -0.3630 
 10 C        6.3130    -2.0360    -0.0520 C.3   1 <1>   0.1200 
 11 C        7.4660    -3.0320    -0.0640 C.3   1 <1>   0.1200 
 12 O        8.6590    -2.3190     0.0230 O.3   1 <1>  -0.5600 
 13 C        9.7950    -3.1220     0.0290 C.3   1 <1>   0.0400 
 14 H        0.6070    -2.8890     0.1010 H     1 <1>   0.1500 
 15 H        2.4350     0.9530     0.0390 H     1 <1>   0.1500 
 16 H        4.6500    -0.0780    -0.0960 H     1 <1>   0.1500 
 17 H        3.7880    -4.6010    -0.2190 H     1 <1>   0.4000 
 18 H        2.1690    -4.7530    -0.6730 H     1 <1>   0.4000 
 19 H        6.3070    -1.4880     0.8740 H     1 <1>   0.0800 
 20 H        6.3900    -1.3700    -0.8930 H     1 <1>   0.0800 
 21 H        7.4660    -3.5920    -0.9840 H     1 <1>   0.0800 
 22 H        7.3960    -3.6930     0.7830 H     1 <1>   0.0800 
 23 H       10.6570    -2.4810     0.0980 H     1 <1>   0.0800 
 24 H        9.8370    -3.6880    -0.8850 H     1 <1>   0.0800 
 25 H        9.7630    -3.7780     0.8820 H     1 <1>   0.0800 
@<TRIPOS>BOND
  1   1   2  1   
  2   2   3  ar  
  3   2   4  ar  
  4   3   5  ar  
  5   3  14  1   
  6   4   6  ar  
  7   4  15  1   
  8   5   7  1   
  9   5   8  ar  
 10   6   8  ar  
 11   6  16  1   
 12   7  17  1   
 13   7  18  1   
 14   8   9  1   
 15   9  10  1   
 16  10  11  1   
 17  10  19  1   
 18  10  20  1   
 19  11  12  1   
 20  11  21  1   
 21  11  22  1   
 22  12  13  1   
 23  13  23  1   
 24  13  24  1   
 25  13  25  1   
@<TRIPOS>SUBSTRUCTURE
  1 ****   8 GROUP 4 **** **** 0

# MOE 2024.06 (io_trps.svl 2023.06)
