@<TRIPOS>MOLECULE
2-Ethoxycarbonylmethyl-3-oxo-piperazine-1-carboxylic acid tert-butyl ester
42 42 1 0 0 
SMALL
USER_CHARGES


@<TRIPOS>ATOM
  1 O       -0.4660     0.1890    -0.6530 O.2   1 <1>  -0.5700 
  2 C        0.0160     1.1020    -0.0300 C.2   1 <1>   0.5690 
  3 N        0.9160     0.8290     0.9500 N.am  1 <1>  -0.7300 
  4 C       -0.3700     2.5630    -0.3580 C.3   1 <1>   0.2810 
  5 C        1.7650     1.8440     1.6260 C.3   1 <1>   0.1400 
  6 N        0.6180     3.5540     0.2050 N.am  1 <1>  -0.6600 
  7 C       -1.7620     2.9400     0.1570 C.3   1 <1>  -0.0990 
  8 C        1.1270     3.2420     1.5760 C.3   1 <1>   0.1400 
  9 C        1.0870     4.5870    -0.5590 C.2   1 <1>   0.7800 
 10 C       -2.8150     2.0360    -0.4290 C.2   1 <1>   0.6590 
 11 O        0.6410     4.8200    -1.6620 O.2   1 <1>  -0.5700 
 12 O        2.0600     5.3370    -0.0350 O.3   1 <1>  -0.4300 
 13 O       -3.2300     2.1970    -1.5460 O.2   1 <1>  -0.5700 
 14 O       -3.2480     1.0670     0.3640 O.3   1 <1>  -0.4300 
 15 C        2.6990     6.4470    -0.6290 C.3   1 <1>   0.2800 
 16 C       -4.1450     0.0900    -0.1060 C.3   1 <1>   0.1200 
 17 C        3.4300     6.0200    -1.9070 C.3   1 <1>  -0.2400 
 18 C        3.7240     6.9160     0.4040 C.3   1 <1>  -0.2400 
 19 C        1.6860     7.5710    -0.8810 C.3   1 <1>  -0.2400 
 20 C       -4.4230    -0.8840     1.0340 C.3   1 <1>  -0.2400 
 21 H        1.1600    -0.1560     1.0740 H     1 <1>   0.3700 
 22 H       -0.3790     2.6430    -1.4320 H     1 <1>   0.0800 
 23 H        2.7250     1.8760     1.1400 H     1 <1>   0.0800 
 24 H        1.9180     1.5570     2.6520 H     1 <1>   0.0800 
 25 H       -1.9880     3.9480    -0.1360 H     1 <1>   0.0800 
 26 H       -1.7990     2.8670     1.2270 H     1 <1>   0.0800 
 27 H        1.8520     3.9700     1.8960 H     1 <1>   0.0800 
 28 H        0.3080     3.2800     2.2720 H     1 <1>   0.0800 
 29 H       -3.6870    -0.4140    -0.9410 H     1 <1>   0.0800 
 30 H       -5.0480     0.5810    -0.4290 H     1 <1>   0.0800 
 31 H        2.7340     5.7510    -2.6810 H     1 <1>   0.0800 
 32 H        4.0760     5.1840    -1.7070 H     1 <1>   0.0800 
 33 H        4.0270     6.8330    -2.2770 H     1 <1>   0.0800 
 34 H        4.4310     6.1340     0.6110 H     1 <1>   0.0800 
 35 H        3.2320     7.1970     1.3180 H     1 <1>   0.0800 
 36 H        4.2630     7.7700     0.0350 H     1 <1>   0.0800 
 37 H        0.9920     7.3020    -1.6550 H     1 <1>   0.0800 
 38 H        2.1980     8.4600    -1.2000 H     1 <1>   0.0800 
 39 H        1.1430     7.7950     0.0200 H     1 <1>   0.0800 
 40 H       -3.5070    -1.3550     1.3450 H     1 <1>   0.0800 
 41 H       -5.1040    -1.6460     0.7020 H     1 <1>   0.0800 
 42 H       -4.8650    -0.3660     1.8660 H     1 <1>   0.0800 
@<TRIPOS>BOND
  1   1   2  2   
  2   2   3  am  
  3   2   4  1   
  4   3   5  1   
  5   3  21  1   
  6   4   6  1   
  7   4   7  1   
  8   4  22  1   
  9   5   8  1   
 10   5  23  1   
 11   5  24  1   
 12   6   8  1   
 13   6   9  am  
 14   7  10  1   
 15   7  25  1   
 16   7  26  1   
 17   8  27  1   
 18   8  28  1   
 19   9  11  2   
 20   9  12  1   
 21  10  13  2   
 22  10  14  1   
 23  12  15  1   
 24  14  16  1   
 25  15  17  1   
 26  15  18  1   
 27  15  19  1   
 28  16  20  1   
 29  16  29  1   
 30  16  30  1   
 31  17  31  1   
 32  17  32  1   
 33  17  33  1   
 34  18  34  1   
 35  18  35  1   
 36  18  36  1   
 37  19  37  1   
 38  19  38  1   
 39  19  39  1   
 40  20  40  1   
 41  20  41  1   
 42  20  42  1   
@<TRIPOS>SUBSTRUCTURE
  1 ****   4 GROUP 4 **** **** 0

# MOE 2024.06 (io_trps.svl 2023.06)
