@<TRIPOS>MOLECULE
4-[(Isopropyl-thiophen-2-ylmethyl-amino)-methyl]-6-methoxy-chromen-2-one
46 48 1 0 0 
SMALL
USER_CHARGES


@<TRIPOS>ATOM
  1 S       -3.0440     1.1260    -2.1380 S.3   1 <1>  -0.0800 
  2 C       -1.8040     0.5420    -1.0370 C.2   1 <1>  -0.1400 
  3 C       -2.4350     2.7660    -2.0260 C.2   1 <1>  -0.1100 
  4 C       -1.0040     1.5540    -0.6490 C.2   1 <1>  -0.1500 
  5 C       -1.8100    -0.9370    -0.7150 C.3   1 <1>   0.5230 
  6 C       -1.3670     2.8200    -1.2100 C.2   1 <1>  -0.1500 
  7 N       -2.5270    -1.1560     0.5820 N.4   1 <1>  -0.9590 
  8 C       -2.3410    -2.5000     1.2010 C.3   1 <1>   0.4230 
  9 C       -3.9560    -0.6960     0.5010 C.3   1 <1>   0.4810 
 10 C       -0.8500    -2.8140     1.3370 C.3   1 <1>  -0.2400 
 11 C       -2.9810    -2.5240     2.5900 C.3   1 <1>  -0.2400 
 12 C       -4.8750    -1.4680    -0.4510 C.2   1 <1>  -0.1670 
 13 C       -6.2190    -0.9620    -0.5780 C.ar  1 <1>   0.0280 
 14 C       -4.5520    -2.5650    -1.1810 C.2   1 <1>  -0.1360 
 15 C       -7.1090    -1.6290    -1.4360 C.ar  1 <1>   0.0830 
 16 C       -6.7080     0.1610     0.0970 C.ar  1 <1>  -0.1500 
 17 C       -5.4850    -3.2160    -2.0430 C.2   1 <1>   0.7060 
 18 O       -6.7170    -2.7210    -2.1290 O.3   1 <1>  -0.2320 
 19 C       -8.4150    -1.1930    -1.6020 C.ar  1 <1>  -0.1500 
 20 C       -8.0080     0.5990    -0.0650 C.ar  1 <1>   0.0830 
 21 O       -5.1930    -4.1960    -2.6910 O.2   1 <1>  -0.5700 
 22 C       -8.8700    -0.0820    -0.9210 C.ar  1 <1>  -0.1500 
 23 O       -8.3640     1.6990     0.6440 O.3   1 <1>  -0.3620 
 24 C       -9.6610     2.2480     0.5420 C.3   1 <1>   0.0400 
 25 H       -2.9450     3.5270    -2.5920 H     1 <1>   0.1500 
 26 H       -0.1550     1.4850     0.0110 H     1 <1>   0.1500 
 27 H       -0.7870    -1.2620    -0.6310 H     1 <1>   0.0800 
 28 H       -2.2730    -1.4830    -1.5180 H     1 <1>   0.0800 
 29 H       -0.8080     3.7120    -0.9770 H     1 <1>   0.1500 
 30 H       -2.0760    -0.4980     1.2270 H     1 <1>   0.4500 
 31 H       -2.8030    -3.2650     0.5980 H     1 <1>   0.0800 
 32 H       -3.9680     0.3400     0.2000 H     1 <1>   0.0800 
 33 H       -4.3950    -0.7260     1.4850 H     1 <1>   0.0800 
 34 H       -0.3920    -2.9820     0.3790 H     1 <1>   0.0800 
 35 H       -0.3300    -2.0320     1.8610 H     1 <1>   0.0800 
 36 H       -0.7230    -3.7250     1.8970 H     1 <1>   0.0800 
 37 H       -4.0530    -2.4720     2.5310 H     1 <1>   0.0800 
 38 H       -2.6090    -1.7270     3.2080 H     1 <1>   0.0800 
 39 H       -2.7500    -3.4550     3.0790 H     1 <1>   0.0800 
 40 H       -3.5940    -3.0390    -1.1860 H     1 <1>   0.1500 
 41 H       -6.0970     0.7320     0.7680 H     1 <1>   0.1500 
 42 H       -9.0700    -1.7280    -2.2670 H     1 <1>   0.1500 
 43 H       -9.8850     0.2370    -1.0660 H     1 <1>   0.1500 
 44 H       -9.7100     3.1110     1.1810 H     1 <1>   0.0800 
 45 H      -10.3780     1.5150     0.8640 H     1 <1>   0.0800 
 46 H       -9.8370     2.5400    -0.4780 H     1 <1>   0.0800 
@<TRIPOS>BOND
  1   1   2  1   
  2   1   3  1   
  3   2   4  2   
  4   2   5  1   
  5   3   6  2   
  6   3  25  1   
  7   4   6  1   
  8   4  26  1   
  9   5   7  1   
 10   5  27  1   
 11   5  28  1   
 12   6  29  1   
 13   7   8  1   
 14   7   9  1   
 15   7  30  1   
 16   8  10  1   
 17   8  11  1   
 18   8  31  1   
 19   9  12  1   
 20   9  32  1   
 21   9  33  1   
 22  10  34  1   
 23  10  35  1   
 24  10  36  1   
 25  11  37  1   
 26  11  38  1   
 27  11  39  1   
 28  12  13  1   
 29  12  14  2   
 30  13  15  ar  
 31  13  16  ar  
 32  14  17  1   
 33  14  40  1   
 34  15  18  1   
 35  15  19  ar  
 36  16  20  ar  
 37  16  41  1   
 38  17  18  1   
 39  17  21  2   
 40  19  22  ar  
 41  19  42  1   
 42  20  22  ar  
 43  20  23  1   
 44  22  43  1   
 45  23  24  1   
 46  24  44  1   
 47  24  45  1   
 48  24  46  1   
@<TRIPOS>SUBSTRUCTURE
  1 ****  12 GROUP 4 **** **** 0

# MOE 2024.06 (io_trps.svl 2023.06)
