@<TRIPOS>MOLECULE
7-(3-Ethyl-phenoxymethyl)-1-methyl-6,7-dihydro-1H-oxazolo[2,3-f]purine-2,4-dione
43 46 1 0 0 
SMALL
USER_CHARGES


@<TRIPOS>ATOM
  1 O        1.5570    -0.4190    -0.9700 O.2   1 <1>  -0.5700 
  2 C        2.4210     0.3830    -0.6790 C.2   1 <1>   0.6900 
  3 N        3.6430    -0.0030    -0.1580 N.am  1 <1>  -0.4230 
  4 N        2.1610     1.7080    -0.8820 N.am  1 <1>  -0.4900 
  5 C        4.5800     0.9840     0.1470 C.2   1 <1>   0.2900 
  6 C        3.9940    -1.4240     0.0960 C.3   1 <1>   0.0600 
  7 C        3.0480     2.6980    -0.5990 C.2   1 <1>   0.7150 
  8 N        5.8130     0.8000     0.6520 N.2   1 <1>  -0.5650 
  9 C        4.2890     2.2930    -0.0650 C.2   1 <1>  -0.2370 
 10 O        2.7530     3.8570    -0.8120 O.2   1 <1>  -0.5700 
 11 C        6.2350     2.0240     0.7350 C.2   1 <1>   0.2490 
 12 N        5.3940     2.9640     0.3320 N.pl3 1 <1>   0.0480 
 13 O        7.4080     2.5100     1.1440 O.3   1 <1>  -0.3430 
 14 C        5.9910     4.2790     0.4570 C.3   1 <1>   0.0960 
 15 C        7.4300     3.9140     0.8910 C.3   1 <1>   0.2000 
 16 C        8.4580     4.2380    -0.2060 C.3   1 <1>   0.1200 
 17 O        9.7790     4.0370     0.2580 O.3   1 <1>  -0.3630 
 18 C       10.4530     2.8650     0.1200 C.ar  1 <1>   0.0820 
 19 C        9.9050     1.6990    -0.4110 C.ar  1 <1>  -0.1500 
 20 C       11.7710     2.8580     0.5450 C.ar  1 <1>  -0.1500 
 21 C       10.6630     0.5430    -0.5070 C.ar  1 <1>  -0.1430 
 22 C       12.5350     1.7090     0.4470 C.ar  1 <1>  -0.1500 
 23 C       11.9810     0.5530    -0.0770 C.ar  1 <1>  -0.1500 
 24 C       10.0390    -0.7240    -1.0710 C.3   1 <1>  -0.0170 
 25 C        9.1270    -1.3820    -0.0330 C.3   1 <1>  -0.2400 
 26 H        1.2580     1.9590    -1.2650 H     1 <1>   0.3700 
 27 H        3.1880    -2.0760    -0.1890 H     1 <1>   0.0800 
 28 H        4.2020    -1.5580     1.1430 H     1 <1>   0.0800 
 29 H        4.8730    -1.6810    -0.4700 H     1 <1>   0.0800 
 30 H        5.4810     4.8410     1.2180 H     1 <1>   0.0800 
 31 H        5.9550     4.8010    -0.4820 H     1 <1>   0.0800 
 32 H        7.6920     4.4210     1.8030 H     1 <1>   0.0800 
 33 H        8.3870     5.2810    -0.4570 H     1 <1>   0.0800 
 34 H        8.2920     3.6710    -1.1030 H     1 <1>   0.0800 
 35 H        8.8860     1.6620    -0.7420 H     1 <1>   0.1500 
 36 H       12.1950     3.7570     0.9540 H     1 <1>   0.1500 
 37 H       13.5570     1.7120     0.7810 H     1 <1>   0.1500 
 38 H       12.5780    -0.3380    -0.1440 H     1 <1>   0.1500 
 39 H       10.8100    -1.4150    -1.3620 H     1 <1>   0.0800 
 40 H        9.4680    -0.4800    -1.9490 H     1 <1>   0.0800 
 41 H        9.6890    -1.6270     0.8510 H     1 <1>   0.0800 
 42 H        8.6960    -2.2810    -0.4330 H     1 <1>   0.0800 
 43 H        8.3320    -0.7110     0.2440 H     1 <1>   0.0800 
@<TRIPOS>BOND
  1   1   2  2   
  2   2   3  am  
  3   2   4  am  
  4   3   5  1   
  5   3   6  1   
  6   4   7  am  
  7   4  26  1   
  8   5   8  1   
  9   5   9  2   
 10   6  27  1   
 11   6  28  1   
 12   6  29  1   
 13   7   9  1   
 14   7  10  2   
 15   8  11  2   
 16   9  12  1   
 17  11  12  1   
 18  11  13  1   
 19  12  14  1   
 20  13  15  1   
 21  14  15  1   
 22  14  30  1   
 23  14  31  1   
 24  15  16  1   
 25  15  32  1   
 26  16  17  1   
 27  16  33  1   
 28  16  34  1   
 29  17  18  1   
 30  18  19  ar  
 31  18  20  ar  
 32  19  21  ar  
 33  19  35  1   
 34  20  22  ar  
 35  20  36  1   
 36  21  23  ar  
 37  21  24  1   
 38  22  23  ar  
 39  22  37  1   
 40  23  38  1   
 41  24  25  1   
 42  24  39  1   
 43  24  40  1   
 44  25  41  1   
 45  25  42  1   
 46  25  43  1   
@<TRIPOS>SUBSTRUCTURE
  1 ****  11 GROUP 4 **** **** 0

# MOE 2024.06 (io_trps.svl 2023.06)
