@<TRIPOS>MOLECULE
7-(4-Fluoro-benzyl)-3-methyl-8-(2-morpholin-4-yl-ethylamino)-3,7-dihydro-purine-
54 57 1 0 0 
SMALL
USER_CHARGES


@<TRIPOS>ATOM
  1 F       -0.3790    -1.6700    -0.5640 F     1 <1>  -0.1970 
  2 C       -1.6740    -1.5240    -0.5110 C.ar  1 <1>   0.1830 
  3 C       -2.3800    -1.4000    -1.6910 C.ar  1 <1>  -0.1570 
  4 C       -2.2950    -1.5330     0.7220 C.ar  1 <1>  -0.1570 
  5 C       -3.7610    -1.3160    -1.6340 C.ar  1 <1>  -0.1570 
  6 C       -3.6760    -1.4510     0.7700 C.ar  1 <1>  -0.1570 
  7 C       -4.4140    -1.3660    -0.4060 C.ar  1 <1>  -0.1510 
  8 C       -5.9340    -1.4100    -0.3520 C.3   1 <1>   0.4930 
  9 N       -6.4090    -2.8340    -0.3460 N.pl3 1 <1>  -0.7670 
 10 C       -5.7780    -4.0100    -0.4490 C.cat 1 <1>   1.0690 
 11 C       -7.7770    -3.1280    -0.1990 C.2   1 <1>   0.2710 
 12 N       -6.6510    -5.0100    -0.3740 N.pl3 1 <1>  -0.7040 
 13 N       -4.4610    -4.1670    -0.6090 N.pl3 1 <1>  -0.7180 
 14 C       -8.9640    -2.3410    -0.0440 C.2   1 <1>   0.6990 
 15 C       -7.8950    -4.4750    -0.2220 C.2   1 <1>   0.4210 
 16 C       -3.5900    -5.3760    -0.6900 C.3   1 <1>   0.1610 
 17 O       -8.9540    -1.1270    -0.0150 O.2   1 <1>  -0.5740 
 18 N      -10.1470    -3.0110     0.0750 N.am  1 <1>  -0.4950 
 19 N       -9.1060    -5.1410    -0.1070 N.am  1 <1>  -0.4410 
 20 C       -2.1170    -5.0000    -0.3940 C.3   1 <1>   0.3370 
 21 C      -10.2530    -4.3720     0.0510 C.2   1 <1>   0.6860 
 22 C       -9.1820    -6.6320    -0.1420 C.3   1 <1>   0.0530 
 23 N       -1.1480    -6.1100    -0.6380 N.4   1 <1>  -0.9610 
 24 O      -11.3490    -4.8650     0.1700 O.2   1 <1>  -0.5740 
 25 C       -1.2400    -7.2740     0.3140 C.3   1 <1>   0.3370 
 26 C        0.2710    -5.6070    -0.6600 C.3   1 <1>   0.3370 
 27 C       -0.1440    -8.3270     0.0230 C.3   1 <1>   0.1130 
 28 C        1.2570    -6.7470    -1.0100 C.3   1 <1>   0.1130 
 29 O        0.5930    -7.9780    -1.1160 O.3   1 <1>  -0.5650 
 30 H       -1.8570    -1.3630    -2.6330 H     1 <1>   0.1430 
 31 H       -1.7080    -1.5960     1.6230 H     1 <1>   0.1430 
 32 H       -4.3170    -1.2180    -2.5540 H     1 <1>   0.1430 
 33 H       -4.1670    -1.4590     1.7310 H     1 <1>   0.1430 
 34 H       -6.3490    -0.8930    -1.2020 H     1 <1>   0.0730 
 35 H       -6.2790    -0.9080     0.5380 H     1 <1>   0.0730 
 36 H       -6.4400    -6.0010    -0.4440 H     1 <1>   0.4450 
 37 H       -3.9630    -3.2700    -0.6960 H     1 <1>   0.4450 
 38 H       -3.6570    -5.7830    -1.6860 H     1 <1>   0.0730 
 39 H       -3.9280    -6.1130     0.0180 H     1 <1>   0.0730 
 40 H      -11.0070    -2.4780     0.1900 H     1 <1>   0.3640 
 41 H       -2.0290    -4.6730     0.6290 H     1 <1>   0.0730 
 42 H       -1.8460    -4.1740    -1.0330 H     1 <1>   0.0730 
 43 H       -8.7150    -7.0420     0.7370 H     1 <1>   0.0730 
 44 H       -8.6890    -7.0060    -1.0220 H     1 <1>   0.0730 
 45 H      -10.2060    -6.9630    -0.1660 H     1 <1>   0.0730 
 46 H       -1.2650    -6.5240    -1.5780 H     1 <1>   0.4450 
 47 H       -2.2030    -7.7470     0.2290 H     1 <1>   0.0730 
 48 H       -1.1310    -6.9310     1.3290 H     1 <1>   0.0730 
 49 H        0.5330    -5.2010     0.3020 H     1 <1>   0.0730 
 50 H        0.3780    -4.8180    -1.3860 H     1 <1>   0.0730 
 51 H       -0.5900    -9.2900    -0.1550 H     1 <1>   0.0730 
 52 H        0.5310    -8.4170     0.8560 H     1 <1>   0.0730 
 53 H        2.0250    -6.8310    -0.2590 H     1 <1>   0.0730 
 54 H        1.7320    -6.5500    -1.9550 H     1 <1>   0.0730 
@<TRIPOS>BOND
  1   1   2  1   
  2   2   3  ar  
  3   2   4  ar  
  4   3   5  ar  
  5   3  30  1   
  6   4   6  ar  
  7   4  31  1   
  8   5   7  ar  
  9   5  32  1   
 10   6   7  ar  
 11   6  33  1   
 12   7   8  1   
 13   8   9  1   
 14   8  34  1   
 15   8  35  1   
 16   9  10  ar  
 17   9  11  1   
 18  10  12  ar  
 19  10  13  ar  
 20  11  14  1   
 21  11  15  2   
 22  12  15  1   
 23  12  36  1   
 24  13  16  1   
 25  13  37  1   
 26  14  17  2   
 27  14  18  am  
 28  15  19  1   
 29  16  20  1   
 30  16  38  1   
 31  16  39  1   
 32  18  21  am  
 33  18  40  1   
 34  19  21  am  
 35  19  22  1   
 36  20  23  1   
 37  20  41  1   
 38  20  42  1   
 39  21  24  2   
 40  22  43  1   
 41  22  44  1   
 42  22  45  1   
 43  23  25  1   
 44  23  26  1   
 45  23  46  1   
 46  25  27  1   
 47  25  47  1   
 48  25  48  1   
 49  26  28  1   
 50  26  49  1   
 51  26  50  1   
 52  27  29  1   
 53  27  51  1   
 54  27  52  1   
 55  28  29  1   
 56  28  53  1   
 57  28  54  1   
@<TRIPOS>SUBSTRUCTURE
  1 ****  13 GROUP 4 **** **** 0

# MOE 2024.06 (io_trps.svl 2023.06)
