@<TRIPOS>MOLECULE
1-m-Tolyl-4-(3,4,5-trimethoxy-phenyl)-4,7-dihydro-1H,3H-furo[3,4-b]pyridine-2,5-
53 56 1 0 0 
SMALL
USER_CHARGES


@<TRIPOS>ATOM
  1 O       -2.6020     0.2690     3.0830 O.2   1 <1>  -0.5700 
  2 C       -2.7900     0.7130     1.9780 C.2   1 <1>   0.5690 
  3 N       -2.8490    -0.0750     0.8350 N.am  1 <1>  -0.2860 
  4 C       -2.9550     2.2210     1.8270 C.3   1 <1>  -0.0990 
  5 C       -2.3780    -1.4020     0.8250 C.ar  1 <1>   0.1170 
  6 C       -3.4810     0.4440    -0.2860 C.2   1 <1>  -0.0290 
  7 C       -4.0260     2.6340     0.7940 C.3   1 <1>   0.2020 
  8 C       -1.1940    -1.7210     0.1700 C.ar  1 <1>  -0.1500 
  9 C       -3.0990    -2.4150     1.4430 C.ar  1 <1>  -0.1500 
 10 C       -4.0410     1.6510    -0.3640 C.2   1 <1>  -0.1240 
 11 C       -3.6980    -0.2680    -1.6080 C.3   1 <1>   0.2580 
 12 C       -3.7640     4.0660     0.3370 C.ar  1 <1>  -0.1440 
 13 C       -0.7410    -3.0280     0.1180 C.ar  1 <1>  -0.1440 
 14 C       -2.6530    -3.7230     1.3950 C.ar  1 <1>  -0.1500 
 15 C       -4.6470     1.7980    -1.6330 C.2   1 <1>   0.7060 
 16 O       -4.4320     0.6970    -2.3570 O.3   1 <1>  -0.4300 
 17 C       -4.5680     5.1010     0.7920 C.ar  1 <1>  -0.1500 
 18 C       -2.7270     4.3580    -0.5370 C.ar  1 <1>  -0.1500 
 19 C       -1.4770    -4.0290     0.7310 C.ar  1 <1>  -0.1500 
 20 C        0.5520    -3.3770    -0.5980 C.3   1 <1>  -0.0970 
 21 O       -5.2990     2.7170    -2.0730 O.2   1 <1>  -0.5700 
 22 C       -4.3480     6.4090     0.3900 C.ar  1 <1>   0.0830 
 23 C       -2.4950     5.6580    -0.9530 C.ar  1 <1>   0.0830 
 24 O       -5.1990     7.3430     0.8930 O.3   1 <1>  -0.3630 
 25 C       -3.2880     6.7030    -0.4740 C.ar  1 <1>   0.0830 
 26 O       -1.4740     5.8570    -1.8230 O.3   1 <1>  -0.3620 
 27 C       -5.8010     8.2520    -0.0030 C.3   1 <1>   0.0400 
 28 O       -3.0140     7.9890    -0.8250 O.3   1 <1>  -0.3630 
 29 C       -1.8420     6.2570    -3.1250 C.3   1 <1>   0.0400 
 30 C       -1.9280     8.5730    -0.1440 C.3   1 <1>   0.0400 
 31 H       -1.9990     2.6080     1.5290 H     1 <1>   0.0800 
 32 H       -3.1940     2.6530     2.7820 H     1 <1>   0.0800 
 33 H       -4.9940     2.5830     1.2640 H     1 <1>   0.0800 
 34 H       -0.6290    -0.9350    -0.2970 H     1 <1>   0.1500 
 35 H       -4.0070    -2.1750     1.9660 H     1 <1>   0.1500 
 36 H       -4.2950    -1.1570    -1.4980 H     1 <1>   0.0800 
 37 H       -2.7740    -0.4800    -2.1160 H     1 <1>   0.0800 
 38 H       -3.2160    -4.5030     1.8770 H     1 <1>   0.1500 
 39 H       -5.3840     4.9100     1.4650 H     1 <1>   0.1500 
 40 H       -2.0850     3.5830    -0.9150 H     1 <1>   0.1500 
 41 H       -1.1350    -5.0490     0.6990 H     1 <1>   0.1500 
 42 H        1.0930    -2.4880    -0.8710 H     1 <1>   0.0800 
 43 H        0.3370    -3.9370    -1.4900 H     1 <1>   0.0800 
 44 H        1.1780    -3.9710     0.0430 H     1 <1>   0.0800 
 45 H       -6.7050     8.6190     0.4480 H     1 <1>   0.0800 
 46 H       -6.0290     7.7420    -0.9240 H     1 <1>   0.0800 
 47 H       -5.1260     9.0690    -0.1810 H     1 <1>   0.0800 
 48 H       -0.9610     6.2550    -3.7390 H     1 <1>   0.0800 
 49 H       -2.2610     7.2460    -3.0890 H     1 <1>   0.0800 
 50 H       -2.5650     5.5590    -3.5120 H     1 <1>   0.0800 
 51 H       -1.8300     9.5910    -0.4750 H     1 <1>   0.0800 
 52 H       -1.0330     8.0220    -0.3720 H     1 <1>   0.0800 
 53 H       -2.1280     8.5440     0.9130 H     1 <1>   0.0800 
@<TRIPOS>BOND
  1   1   2  2   
  2   2   3  am  
  3   2   4  1   
  4   3   5  1   
  5   3   6  1   
  6   4   7  1   
  7   4  31  1   
  8   4  32  1   
  9   5   8  ar  
 10   5   9  ar  
 11   6  10  2   
 12   6  11  1   
 13   7  10  1   
 14   7  12  1   
 15   7  33  1   
 16   8  13  ar  
 17   8  34  1   
 18   9  14  ar  
 19   9  35  1   
 20  10  15  1   
 21  11  16  1   
 22  11  36  1   
 23  11  37  1   
 24  12  17  ar  
 25  12  18  ar  
 26  13  19  ar  
 27  13  20  1   
 28  14  19  ar  
 29  14  38  1   
 30  15  16  1   
 31  15  21  2   
 32  17  22  ar  
 33  17  39  1   
 34  18  23  ar  
 35  18  40  1   
 36  19  41  1   
 37  20  42  1   
 38  20  43  1   
 39  20  44  1   
 40  22  24  1   
 41  22  25  ar  
 42  23  25  ar  
 43  23  26  1   
 44  24  27  1   
 45  25  28  1   
 46  26  29  1   
 47  27  45  1   
 48  27  46  1   
 49  27  47  1   
 50  28  30  1   
 51  29  48  1   
 52  29  49  1   
 53  29  50  1   
 54  30  51  1   
 55  30  52  1   
 56  30  53  1   
@<TRIPOS>SUBSTRUCTURE
  1 ****  10 GROUP 4 **** **** 0

# MOE 2024.06 (io_trps.svl 2023.06)
