@<TRIPOS>MOLECULE
2-(6-tert-Butyl-3-oxo-2,3-dihydro-benzo[1,4]oxazin-4-yl)-N-(1,3-dimethyl-2-oxo-2
57 60 1 0 0 
SMALL
USER_CHARGES


@<TRIPOS>ATOM
  1 O       -0.0200    -0.5460     0.6630 O.2   1 <1>  -0.5700 
  2 C       -0.4820    -1.6590     0.7800 C.2   1 <1>   0.5690 
  3 N        0.0570    -2.7650     0.1680 N.am  1 <1>  -0.4770 
  4 C       -1.7140    -1.8470     1.6570 C.3   1 <1>   0.1810 
  5 C       -0.6420    -4.0020     0.2130 C.ar  1 <1>   0.1170 
  6 C        1.3930    -2.6290    -0.5050 C.3   1 <1>   0.2010 
  7 O       -2.5470    -2.9080     1.2060 O.3   1 <1>  -0.3630 
  8 C       -1.9430    -4.0290     0.7300 C.ar  1 <1>   0.0830 
  9 C       -0.1040    -5.2050    -0.2430 C.ar  1 <1>  -0.1500 
 10 C        2.5250    -3.3330     0.2470 C.2   1 <1>   0.5690 
 11 C       -2.6620    -5.2060     0.7710 C.ar  1 <1>  -0.1500 
 12 C       -0.8040    -6.4080    -0.1930 C.ar  1 <1>  -0.1440 
 13 O        2.7000    -3.0900     1.4160 O.2   1 <1>  -0.5700 
 14 N        3.3030    -4.2240    -0.4500 N.am  1 <1>  -0.5470 
 15 C       -2.0970    -6.3820     0.3160 C.ar  1 <1>  -0.1500 
 16 C       -0.2050    -7.7500    -0.6730 C.3   1 <1>   0.1430 
 17 C        4.2130    -5.1870     0.0210 C.ar  1 <1>   0.1170 
 18 C       -0.1960    -8.7520     0.4910 C.3   1 <1>  -0.2400 
 19 C       -1.0570    -8.3090    -1.8220 C.3   1 <1>  -0.2400 
 20 C        1.2430    -7.6310    -1.1830 C.3   1 <1>  -0.2400 
 21 C        5.2130    -5.6380    -0.8320 C.ar  1 <1>  -0.1500 
 22 C        4.1180    -5.7310     1.3080 C.ar  1 <1>  -0.1500 
 23 C        6.0930    -6.6150    -0.3940 C.ar  1 <1>   0.1170 
 24 C        4.9990    -6.7040     1.7460 C.ar  1 <1>  -0.1500 
 25 N        7.1630    -7.2400    -1.0270 N.am  1 <1>  -0.4770 
 26 C        5.9880    -7.1440     0.8820 C.ar  1 <1>   0.1170 
 27 C        7.6950    -8.1360    -0.1380 C.2   1 <1>   0.6900 
 28 C        7.6660    -6.9670    -2.3900 C.3   1 <1>   0.0600 
 29 N        6.9920    -8.0960     1.0340 N.am  1 <1>  -0.4770 
 30 O        8.6530    -8.8630    -0.3610 O.2   1 <1>  -0.5700 
 31 C        7.2660    -8.8940     2.2480 C.3   1 <1>   0.0600 
 32 H       -2.3000    -0.9480     1.6630 H     1 <1>   0.0800 
 33 H       -1.4030    -2.0760     2.6590 H     1 <1>   0.0800 
 34 H        1.6630    -1.5930    -0.5980 H     1 <1>   0.0800 
 35 H        1.3130    -3.0250    -1.4990 H     1 <1>   0.0800 
 36 H        0.8820    -5.2030    -0.6420 H     1 <1>   0.1500 
 37 H       -3.6630    -5.1990     1.1640 H     1 <1>   0.1500 
 38 H        3.2010    -4.2080    -1.4630 H     1 <1>   0.3700 
 39 H       -2.6830    -7.2820     0.3680 H     1 <1>   0.1500 
 40 H        0.3690    -8.3530     1.3150 H     1 <1>   0.0800 
 41 H        0.2500    -9.6830     0.1890 H     1 <1>   0.0800 
 42 H       -1.1920    -8.9590     0.8350 H     1 <1>   0.0800 
 43 H       -2.0640    -8.5020    -1.5000 H     1 <1>   0.0800 
 44 H       -0.6430    -9.2310    -2.1900 H     1 <1>   0.0800 
 45 H       -1.0930    -7.6030    -2.6320 H     1 <1>   0.0800 
 46 H        1.2940    -6.9700    -2.0290 H     1 <1>   0.0800 
 47 H        1.6140    -8.5920    -1.4930 H     1 <1>   0.0800 
 48 H        1.8890    -7.2630    -0.4060 H     1 <1>   0.0800 
 49 H        5.3150    -5.2410    -1.8230 H     1 <1>   0.1500 
 50 H        3.3450    -5.3910     1.9740 H     1 <1>   0.1500 
 51 H        4.9220    -7.1150     2.7360 H     1 <1>   0.1500 
 52 H        7.9610    -5.9350    -2.4650 H     1 <1>   0.0800 
 53 H        6.8940    -7.1750    -3.1080 H     1 <1>   0.0800 
 54 H        8.5170    -7.5910    -2.5980 H     1 <1>   0.0800 
 55 H        6.4030    -9.4860     2.4920 H     1 <1>   0.0800 
 56 H        7.4970    -8.2370     3.0670 H     1 <1>   0.0800 
 57 H        8.1040    -9.5470     2.0740 H     1 <1>   0.0800 
@<TRIPOS>BOND
  1   1   2  2   
  2   2   3  am  
  3   2   4  1   
  4   3   5  1   
  5   3   6  1   
  6   4   7  1   
  7   4  32  1   
  8   4  33  1   
  9   5   8  ar  
 10   5   9  ar  
 11   6  10  1   
 12   6  34  1   
 13   6  35  1   
 14   7   8  1   
 15   8  11  ar  
 16   9  12  ar  
 17   9  36  1   
 18  10  13  2   
 19  10  14  am  
 20  11  15  ar  
 21  11  37  1   
 22  12  15  ar  
 23  12  16  1   
 24  14  17  1   
 25  14  38  1   
 26  15  39  1   
 27  16  18  1   
 28  16  19  1   
 29  16  20  1   
 30  17  21  ar  
 31  17  22  ar  
 32  18  40  1   
 33  18  41  1   
 34  18  42  1   
 35  19  43  1   
 36  19  44  1   
 37  19  45  1   
 38  20  46  1   
 39  20  47  1   
 40  20  48  1   
 41  21  23  ar  
 42  21  49  1   
 43  22  24  ar  
 44  22  50  1   
 45  23  25  1   
 46  23  26  ar  
 47  24  26  ar  
 48  24  51  1   
 49  25  27  am  
 50  25  28  1   
 51  26  29  1   
 52  27  29  am  
 53  27  30  2   
 54  28  52  1   
 55  28  53  1   
 56  28  54  1   
 57  29  31  1   
 58  31  55  1   
 59  31  56  1   
 60  31  57  1   
@<TRIPOS>SUBSTRUCTURE
  1 ****  14 GROUP 4 **** **** 0

# MOE 2024.06 (io_trps.svl 2023.06)
