@<TRIPOS>MOLECULE
7-[3-(3,4-Dimethyl-phenoxy)-2-hydroxy-propyl]-1,3-dimethyl-8-morpholin-4-yl-3,7-
62 65 1 0 0 
SMALL
USER_CHARGES


@<TRIPOS>ATOM
  1 O        1.4100     2.5430    -0.2100 O.2   1 <1>  -0.5740 
  2 C        2.6210     2.4920    -0.2790 C.2   1 <1>   0.6870 
  3 N        3.3560     3.6540    -0.5000 N.am  1 <1>  -0.4240 
  4 N        3.2710     1.2740    -0.1290 N.am  1 <1>  -0.4400 
  5 C        4.7440     3.6350    -0.5110 C.2   1 <1>   0.7000 
  6 C        2.6250     4.9490    -0.6670 C.3   1 <1>   0.0540 
  7 C        4.6510     1.2650    -0.1700 C.2   1 <1>   0.4220 
  8 C        2.4990     0.0190     0.1110 C.3   1 <1>   0.0540 
  9 O        5.3850     4.6710    -0.6200 O.2   1 <1>  -0.5740 
 10 C        5.4010     2.3710    -0.3640 C.2   1 <1>   0.2720 
 11 N        5.4860     0.2060     0.0000 N.pl3 1 <1>  -0.7030 
 12 N        6.7450     1.9520    -0.3200 N.pl3 1 <1>  -0.7670 
 13 C        6.7360     0.6460    -0.0710 C.cat 1 <1>   1.0690 
 14 C        7.9280     2.8580    -0.4130 C.3   1 <1>   0.3490 
 15 N        7.8060    -0.1320     0.1500 N.pl3 1 <1>  -0.5950 
 16 C        8.2690     3.5320     0.9370 C.3   1 <1>   0.1940 
 17 C        7.9250    -1.4150    -0.6150 C.3   1 <1>   0.1620 
 18 C        8.1950    -0.3330     1.5790 C.3   1 <1>   0.1620 
 19 O        7.1200     4.0040     1.5750 O.3   1 <1>  -0.6830 
 20 C        9.2550     4.6870     0.7590 C.3   1 <1>   0.1140 
 21 C        7.2980    -2.5960     0.1610 C.3   1 <1>   0.1140 
 22 C        7.3610    -1.4730     2.2150 C.3   1 <1>   0.1140 
 23 O       10.3440     4.2140    -0.0030 O.3   1 <1>  -0.3670 
 24 O        6.5600    -2.1180     1.2530 O.3   1 <1>  -0.5640 
 25 C       11.3570     5.0410    -0.3670 C.ar  1 <1>   0.0760 
 26 C       11.4470     6.3750     0.0180 C.ar  1 <1>  -0.1560 
 27 C       12.3450     4.5000    -1.1700 C.ar  1 <1>  -0.1560 
 28 C       12.5100     7.1610    -0.3990 C.ar  1 <1>  -0.1490 
 29 C       13.4070     5.2790    -1.5880 C.ar  1 <1>  -0.1560 
 30 C       13.4980     6.6100    -1.2090 C.ar  1 <1>  -0.1490 
 31 C       12.5730     8.6170     0.0430 C.3   1 <1>  -0.1030 
 32 C       14.6840     7.4330    -1.6920 C.3   1 <1>  -0.1030 
 33 H        1.7220     4.7950    -1.2330 H     1 <1>   0.0740 
 34 H        3.2300     5.6690    -1.1910 H     1 <1>   0.0740 
 35 H        2.3660     5.3430     0.3000 H     1 <1>   0.0740 
 36 H        1.5060     0.1030    -0.2960 H     1 <1>   0.0740 
 37 H        2.4220    -0.1620     1.1700 H     1 <1>   0.0740 
 38 H        2.9830    -0.8180    -0.3600 H     1 <1>   0.0740 
 39 H        5.2920    -0.7480     0.3240 H     1 <1>   0.4460 
 40 H        7.7390     3.6180    -1.1530 H     1 <1>   0.0740 
 41 H        8.7850     2.3000    -0.7500 H     1 <1>   0.0740 
 42 H        8.7130     2.8070     1.5950 H     1 <1>   0.0740 
 43 H        8.9630    -1.6250    -0.8090 H     1 <1>   0.0740 
 44 H        7.4370    -1.3200    -1.5710 H     1 <1>   0.0740 
 45 H        8.0500     0.5740     2.1420 H     1 <1>   0.0740 
 46 H        9.2420    -0.5800     1.6330 H     1 <1>   0.0740 
 47 H        6.6910     4.7100     1.0380 H     1 <1>   0.3960 
 48 H        9.6270     5.0200     1.7130 H     1 <1>   0.0740 
 49 H        8.8010     5.5010     0.2210 H     1 <1>   0.0740 
 50 H        8.0610    -3.2650     0.5250 H     1 <1>   0.0740 
 51 H        6.6360    -3.1590    -0.4750 H     1 <1>   0.0740 
 52 H        6.7080    -1.0800     2.9750 H     1 <1>   0.0740 
 53 H        8.0040    -2.2050     2.6760 H     1 <1>   0.0740 
 54 H       10.6970     6.8180     0.6450 H     1 <1>   0.1440 
 55 H       12.2830     3.4700    -1.4680 H     1 <1>   0.1440 
 56 H       14.1640     4.8410    -2.2130 H     1 <1>   0.1440 
 57 H       11.7420     8.8660     0.6760 H     1 <1>   0.0740 
 58 H       12.5490     9.2620    -0.8160 H     1 <1>   0.0740 
 59 H       13.4800     8.7960     0.5910 H     1 <1>   0.0740 
 60 H       14.3400     8.2760    -2.2640 H     1 <1>   0.0740 
 61 H       15.3350     6.8470    -2.3140 H     1 <1>   0.0740 
 62 H       15.2520     7.7880    -0.8510 H     1 <1>   0.0740 
@<TRIPOS>BOND
  1   1   2  2   
  2   2   3  am  
  3   2   4  am  
  4   3   5  am  
  5   3   6  1   
  6   4   7  1   
  7   4   8  1   
  8   5   9  2   
  9   5  10  1   
 10   6  33  1   
 11   6  34  1   
 12   6  35  1   
 13   7  10  2   
 14   7  11  1   
 15   8  36  1   
 16   8  37  1   
 17   8  38  1   
 18  10  12  1   
 19  11  13  ar  
 20  11  39  1   
 21  12  13  ar  
 22  12  14  1   
 23  13  15  ar  
 24  14  16  1   
 25  14  40  1   
 26  14  41  1   
 27  15  17  1   
 28  15  18  1   
 29  16  19  1   
 30  16  20  1   
 31  16  42  1   
 32  17  21  1   
 33  17  43  1   
 34  17  44  1   
 35  18  22  1   
 36  18  45  1   
 37  18  46  1   
 38  19  47  1   
 39  20  23  1   
 40  20  48  1   
 41  20  49  1   
 42  21  24  1   
 43  21  50  1   
 44  21  51  1   
 45  22  24  1   
 46  22  52  1   
 47  22  53  1   
 48  23  25  1   
 49  25  26  ar  
 50  25  27  ar  
 51  26  28  ar  
 52  26  54  1   
 53  27  29  ar  
 54  27  55  1   
 55  28  30  ar  
 56  28  31  1   
 57  29  30  ar  
 58  29  56  1   
 59  30  32  1   
 60  31  57  1   
 61  31  58  1   
 62  31  59  1   
 63  32  60  1   
 64  32  61  1   
 65  32  62  1   
@<TRIPOS>SUBSTRUCTURE
  1 ****  14 GROUP 4 **** **** 0

# MOE 2024.06 (io_trps.svl 2023.06)
