@<TRIPOS>MOLECULE
7-Methyl-5-oxo-2,3-dihydro-1H,5H-pyrido[3,2,1-ij]quinoline-9-sulfonic acid propy
42 44 1 0 0 
SMALL
USER_CHARGES


@<TRIPOS>ATOM
  1 S        0.1230     0.3230    -0.7740 S.o2  1 <1>   1.4470 
  2 O        0.4010     1.7320    -0.6110 O.2   1 <1>  -0.6500 
  3 O       -0.5770    -0.1570    -1.9450 O.2   1 <1>  -0.6500 
  4 N       -0.8050    -0.0660     0.5700 N.am  1 <1>  -0.9140 
  5 C        1.6340    -0.6460    -0.5230 C.ar  1 <1>  -0.0090 
  6 C       -2.2470    -0.0040     0.3800 C.3   1 <1>   0.1960 
  7 C        2.8730    -0.0440    -0.4190 C.ar  1 <1>  -0.1500 
  8 C        1.5780    -2.0320    -0.4300 C.ar  1 <1>  -0.1500 
  9 C       -2.7260     1.4490     0.2800 C.3   1 <1>  -0.1600 
 10 C        4.0530    -0.7700    -0.2220 C.ar  1 <1>   0.0280 
 11 C        2.7140    -2.7890    -0.2350 C.ar  1 <1>  -0.1430 
 12 C       -4.2550     1.5250     0.2220 C.3   1 <1>  -0.2400 
 13 C        3.9680    -2.1750    -0.1260 C.ar  1 <1>   0.1170 
 14 C        5.3460    -0.1440    -0.1170 C.2   1 <1>  -0.1670 
 15 C        2.5810    -4.3010    -0.1470 C.3   1 <1>  -0.0170 
 16 N        5.1340    -2.9360     0.0810 N.am  1 <1>  -0.4770 
 17 C        6.4440    -0.9150     0.0620 C.2   1 <1>  -0.1360 
 18 C        5.4820     1.3700    -0.2090 C.3   1 <1>  -0.1020 
 19 C        3.7080    -4.8830     0.7040 C.3   1 <1>  -0.1600 
 20 C        6.3750    -2.3330     0.1550 C.2   1 <1>   0.6160 
 21 C        5.0660    -4.4220     0.1730 C.3   1 <1>   0.1400 
 22 O        7.3920    -2.9960     0.2920 O.2   1 <1>  -0.5700 
 23 H       -0.5570     0.6490     1.2500 H     1 <1>   0.4200 
 24 H       -2.7200    -0.4680     1.2300 H     1 <1>   0.0800 
 25 H       -2.5370    -0.5600    -0.4970 H     1 <1>   0.0800 
 26 H        2.9190     1.0270    -0.4940 H     1 <1>   0.1500 
 27 H        0.6160    -2.5110    -0.5160 H     1 <1>   0.1500 
 28 H       -2.3290     1.9050    -0.6110 H     1 <1>   0.0800 
 29 H       -2.3820     2.0060     1.1340 H     1 <1>   0.0800 
 30 H       -4.6260     0.9930    -0.6380 H     1 <1>   0.0800 
 31 H       -4.5690     2.5510     0.1460 H     1 <1>   0.0800 
 32 H       -4.6910     1.1000     1.1090 H     1 <1>   0.0800 
 33 H        2.6270    -4.7130    -1.1400 H     1 <1>   0.0800 
 34 H        1.6330    -4.5690     0.2850 H     1 <1>   0.0800 
 35 H        7.4310    -0.5050     0.1440 H     1 <1>   0.1500 
 36 H        5.1230     1.7180    -1.1620 H     1 <1>   0.0800 
 37 H        6.5100     1.6710    -0.1080 H     1 <1>   0.0800 
 38 H        4.9170     1.8420     0.5750 H     1 <1>   0.0800 
 39 H        3.6610    -5.9570     0.6900 H     1 <1>   0.0800 
 40 H        3.6010    -4.5570     1.7240 H     1 <1>   0.0800 
 41 H        5.8380    -4.7840     0.8310 H     1 <1>   0.0800 
 42 H        5.2380    -4.8330    -0.8060 H     1 <1>   0.0800 
@<TRIPOS>BOND
  1   1   2  2   
  2   1   3  2   
  3   1   4  am  
  4   1   5  1   
  5   4   6  1   
  6   4  23  1   
  7   5   7  ar  
  8   5   8  ar  
  9   6   9  1   
 10   6  24  1   
 11   6  25  1   
 12   7  10  ar  
 13   7  26  1   
 14   8  11  ar  
 15   8  27  1   
 16   9  12  1   
 17   9  28  1   
 18   9  29  1   
 19  10  13  ar  
 20  10  14  1   
 21  11  13  ar  
 22  11  15  1   
 23  12  30  1   
 24  12  31  1   
 25  12  32  1   
 26  13  16  1   
 27  14  17  2   
 28  14  18  1   
 29  15  19  1   
 30  15  33  1   
 31  15  34  1   
 32  16  20  am  
 33  16  21  1   
 34  17  20  1   
 35  17  35  1   
 36  18  36  1   
 37  18  37  1   
 38  18  38  1   
 39  19  21  1   
 40  19  39  1   
 41  19  40  1   
 42  20  22  2   
 43  21  41  1   
 44  21  42  1   
@<TRIPOS>SUBSTRUCTURE
  1 ****   5 GROUP 4 **** **** 0

# MOE 2024.06 (io_trps.svl 2023.06)
