@<TRIPOS>MOLECULE
5-Ethyl-7-methyl-2-p-tolyl-1,3-diaza-tricyclo[3.3.1.1*3,7*]decan-6-one
46 49 1 0 0 
SMALL
USER_CHARGES


@<TRIPOS>ATOM
  1 O        0.3520    -0.1560    -0.3660 O.2   1 <1>  -0.5700 
  2 C        1.2580    -0.8750    -0.0700 C.2   1 <1>   0.4480 
  3 C        1.4470    -2.2810    -0.6480 C.3   1 <1>   0.0610 
  4 C        2.3140    -0.4770     0.9620 C.3   1 <1>   0.0610 
  5 C        1.3970    -3.2510     0.5380 C.3   1 <1>   0.3430 
  6 C        2.8740    -2.3510    -1.2080 C.3   1 <1>   0.1100 
  7 C        0.4290    -2.6720    -1.7500 C.3   1 <1>  -0.1600 
  8 C        2.2040    -1.5020     2.0960 C.3   1 <1>   0.3430 
  9 C        3.6970    -0.6540     0.3170 C.3   1 <1>   0.1100 
 10 C        2.1450     0.9590     1.4990 C.3   1 <1>  -0.2400 
 11 N        2.4370    -2.8840     1.5620 N.4   1 <1>  -0.9590 
 12 N        3.8450    -2.0520    -0.1300 N.3   1 <1>  -0.8100 
 13 C       -1.0120    -2.8930    -1.2580 C.3   1 <1>  -0.2400 
 14 C        3.8030    -2.9990     0.9960 C.3   1 <1>   0.8360 
 15 C        4.1370    -4.4440     0.5940 C.ar  1 <1>  -0.1440 
 16 C        5.0330    -4.6870    -0.4420 C.ar  1 <1>  -0.1500 
 17 C        3.5920    -5.5430     1.2580 C.ar  1 <1>  -0.1500 
 18 C        5.3510    -5.9780    -0.8230 C.ar  1 <1>  -0.1500 
 19 C        3.9120    -6.8330     0.8740 C.ar  1 <1>  -0.1500 
 20 C        4.7900    -7.0590    -0.1690 C.ar  1 <1>  -0.1440 
 21 C        5.1400    -8.4750    -0.5920 C.3   1 <1>  -0.0970 
 22 H        1.5690    -4.2540     0.1790 H     1 <1>   0.0800 
 23 H        0.4160    -3.2170     0.9840 H     1 <1>   0.0800 
 24 H        3.0650    -3.3290    -1.6190 H     1 <1>   0.0800 
 25 H        2.9910    -1.6390    -2.0100 H     1 <1>   0.0800 
 26 H        0.7540    -3.5770    -2.2360 H     1 <1>   0.0800 
 27 H        0.4170    -1.8980    -2.5000 H     1 <1>   0.0800 
 28 H        1.2230    -1.4370     2.5400 H     1 <1>   0.0800 
 29 H        2.9330    -1.2720     2.8560 H     1 <1>   0.0800 
 30 H        4.4790    -0.4110     1.0190 H     1 <1>   0.0800 
 31 H        3.8000     0.0100    -0.5270 H     1 <1>   0.0800 
 32 H        1.1780     1.0800     1.9580 H     1 <1>   0.0800 
 33 H        2.2140     1.6670     0.6900 H     1 <1>   0.0800 
 34 H        2.9030     1.1970     2.2250 H     1 <1>   0.0800 
 35 H        2.4050    -3.5610     2.3280 H     1 <1>   0.4500 
 36 H       -1.0840    -3.7370    -0.5970 H     1 <1>   0.0800 
 37 H       -1.6510    -3.0860    -2.1030 H     1 <1>   0.0800 
 38 H       -1.3930    -2.0190    -0.7590 H     1 <1>   0.0800 
 39 H        4.5290    -2.6880     1.7320 H     1 <1>   0.0800 
 40 H        5.5000    -3.8710    -0.9690 H     1 <1>   0.1500 
 41 H        2.9180    -5.4350     2.0870 H     1 <1>   0.1500 
 42 H        6.0430    -6.1380    -1.6340 H     1 <1>   0.1500 
 43 H        3.4770    -7.6700     1.3940 H     1 <1>   0.1500 
 44 H        6.1560    -8.5210    -0.9430 H     1 <1>   0.0800 
 45 H        4.4860    -8.7930    -1.3830 H     1 <1>   0.0800 
 46 H        5.0390    -9.1540     0.2360 H     1 <1>   0.0800 
@<TRIPOS>BOND
  1   1   2  2   
  2   2   3  1   
  3   2   4  1   
  4   3   5  1   
  5   3   6  1   
  6   3   7  1   
  7   4   8  1   
  8   4   9  1   
  9   4  10  1   
 10   5  11  1   
 11   5  22  1   
 12   5  23  1   
 13   6  12  1   
 14   6  24  1   
 15   6  25  1   
 16   7  13  1   
 17   7  26  1   
 18   7  27  1   
 19   8  11  1   
 20   8  28  1   
 21   8  29  1   
 22   9  12  1   
 23   9  30  1   
 24   9  31  1   
 25  10  32  1   
 26  10  33  1   
 27  10  34  1   
 28  11  14  1   
 29  11  35  1   
 30  12  14  1   
 31  13  36  1   
 32  13  37  1   
 33  13  38  1   
 34  14  15  1   
 35  14  39  1   
 36  15  16  ar  
 37  15  17  ar  
 38  16  18  ar  
 39  16  40  1   
 40  17  19  ar  
 41  17  41  1   
 42  18  20  ar  
 43  18  42  1   
 44  19  20  ar  
 45  19  43  1   
 46  20  21  1   
 47  21  44  1   
 48  21  45  1   
 49  21  46  1   
@<TRIPOS>SUBSTRUCTURE
  1 ****  14 GROUP 4 **** **** 0

# MOE 2024.06 (io_trps.svl 2023.06)
