@<TRIPOS>MOLECULE
1-Isopropyl-2,5-dimethyl-1H-pyrrole-3-carbaldehyde
27 27 1 0 0 
SMALL
USER_CHARGES


@<TRIPOS>ATOM
  1 O       -0.4510    -0.0590     0.8300 O.2   1 <1>  -0.5700 
  2 C       -1.6100     0.0050     0.4950 C.2   1 <1>   0.5960 
  3 C       -2.3780     1.1970     0.2490 C.2   1 <1>  -0.0860 
  4 C       -2.0730     2.5390     0.3370 C.2   1 <1>  -0.3320 
  5 C       -3.7160     1.1540    -0.1760 C.2   1 <1>  -0.1500 
  6 N       -3.1510     3.2990    -0.0240 N.pl3 1 <1>   0.0480 
  7 C       -0.7260     3.1040     0.7730 C.3   1 <1>  -0.0600 
  8 C       -4.1580     2.4230    -0.3320 C.2   1 <1>  -0.3320 
  9 C       -3.3130     4.7910    -0.0750 C.3   1 <1>   0.1760 
 10 C       -5.5560     2.8240    -0.7740 C.3   1 <1>  -0.0600 
 11 C       -2.1850     5.4940    -0.8420 C.3   1 <1>  -0.2400 
 12 C       -3.4930     5.3710     1.3330 C.3   1 <1>  -0.2400 
 13 H       -2.1310    -0.9250     0.3610 H     1 <1>   0.0600 
 14 H       -4.2760     0.2490    -0.3430 H     1 <1>   0.1500 
 15 H       -0.1200     2.3510     1.2390 H     1 <1>   0.0800 
 16 H       -0.8540     3.8940     1.4870 H     1 <1>   0.0800 
 17 H       -0.1900     3.4770    -0.0810 H     1 <1>   0.0800 
 18 H       -4.2150     4.9950    -0.6200 H     1 <1>   0.0800 
 19 H       -6.1640     1.9490    -0.9200 H     1 <1>   0.0800 
 20 H       -5.5120     3.3640    -1.7030 H     1 <1>   0.0800 
 21 H       -6.0210     3.4390    -0.0250 H     1 <1>   0.0800 
 22 H       -1.2830     5.5380    -0.2630 H     1 <1>   0.0800 
 23 H       -2.4780     6.5030    -1.0660 H     1 <1>   0.0800 
 24 H       -1.9950     4.9820    -1.7690 H     1 <1>   0.0800 
 25 H       -2.6080     5.2370     1.9240 H     1 <1>   0.0800 
 26 H       -4.3180     4.8860     1.8230 H     1 <1>   0.0800 
 27 H       -3.7050     6.4230     1.2720 H     1 <1>   0.0800 
@<TRIPOS>BOND
  1   1   2  2   
  2   2   3  1   
  3   2  13  1   
  4   3   4  2   
  5   3   5  1   
  6   4   6  1   
  7   4   7  1   
  8   5   8  2   
  9   5  14  1   
 10   6   8  1   
 11   6   9  1   
 12   7  15  1   
 13   7  16  1   
 14   7  17  1   
 15   8  10  1   
 16   9  11  1   
 17   9  12  1   
 18   9  18  1   
 19  10  19  1   
 20  10  20  1   
 21  10  21  1   
 22  11  22  1   
 23  11  23  1   
 24  11  24  1   
 25  12  25  1   
 26  12  26  1   
 27  12  27  1   
@<TRIPOS>SUBSTRUCTURE
  1 ****   4 GROUP 4 **** **** 0

# MOE 2024.06 (io_trps.svl 2023.06)
