@<TRIPOS>MOLECULE
Adamantane-1-carboxylic acid (3-p-tolyl-[1,2,4]oxadiazol-5-ylmethyl)-amide
51 55 1 0 0 
SMALL
USER_CHARGES


@<TRIPOS>ATOM
  1 O       -0.1040     0.6040     1.6710 O.2   1 <1>  -0.5700 
  2 C        0.2270     1.3460     0.7760 C.2   1 <1>   0.5690 
  3 N        1.4900     1.2920     0.2810 N.am  1 <1>  -0.7300 
  4 C       -0.7940     2.3540     0.2040 C.3   1 <1>   0.0610 
  5 C        2.5680     0.4220     0.8170 C.3   1 <1>   0.3200 
  6 C       -1.2640     3.3150     1.3250 C.3   1 <1>  -0.1600 
  7 C       -2.0330     1.5990    -0.3410 C.3   1 <1>  -0.1600 
  8 C       -0.2120     3.2150    -0.9520 C.3   1 <1>  -0.1600 
  9 C        3.8490     1.2130     1.0320 C.2   1 <1>   0.2980 
 10 C       -2.3190     4.3070     0.7990 C.3   1 <1>  -0.0800 
 11 C       -3.0910     2.5820    -0.8750 C.3   1 <1>  -0.0800 
 12 C       -1.2620     4.2060    -1.4890 C.3   1 <1>  -0.0800 
 13 O        3.9080     2.0440     2.0380 O.3   1 <1>  -0.0190 
 14 N        4.8930     1.1550     0.3110 N.2   1 <1>  -0.5650 
 15 C       -3.5300     3.5190     0.2660 C.3   1 <1>  -0.1600 
 16 C       -1.7090     5.1350    -0.3460 C.3   1 <1>  -0.1600 
 17 C       -2.4780     3.4200    -2.0110 C.3   1 <1>  -0.1600 
 18 N        5.0930     2.5610     1.9510 N.2   1 <1>  -0.4100 
 19 C        5.6810     2.0390     0.9330 C.2   1 <1>   0.4620 
 20 C        7.0280     2.3470     0.4810 C.ar  1 <1>   0.0540 
 21 C        7.8190     3.2840     1.1470 C.ar  1 <1>  -0.1500 
 22 C        7.5900     1.7250    -0.6350 C.ar  1 <1>  -0.1500 
 23 C        9.1010     3.5850     0.7240 C.ar  1 <1>  -0.1500 
 24 C        8.8710     2.0210    -1.0630 C.ar  1 <1>  -0.1500 
 25 C        9.6370     2.9530    -0.3850 C.ar  1 <1>  -0.1440 
 26 C       11.0430     3.2820    -0.8540 C.3   1 <1>  -0.0970 
 27 H        1.7690     1.9280    -0.4680 H     1 <1>   0.3700 
 28 H        2.7580    -0.3700     0.1150 H     1 <1>   0.0800 
 29 H        2.2660    -0.0200     1.7500 H     1 <1>   0.0800 
 30 H       -0.4200     3.8560     1.7160 H     1 <1>   0.0800 
 31 H       -1.6840     2.7450     2.1360 H     1 <1>   0.0800 
 32 H       -2.4660     1.0020     0.4440 H     1 <1>   0.0800 
 33 H       -1.7320     0.9270    -1.1260 H     1 <1>   0.0800 
 34 H        0.1100     2.5780    -1.7570 H     1 <1>   0.0800 
 35 H        0.6420     3.7690    -0.6010 H     1 <1>   0.0800 
 36 H       -2.6320     4.9600     1.5950 H     1 <1>   0.0800 
 37 H       -3.9430     2.0360    -1.2430 H     1 <1>   0.0800 
 38 H       -0.8380     4.7910    -2.2870 H     1 <1>   0.0800 
 39 H       -4.2800     4.2030    -0.0920 H     1 <1>   0.0800 
 40 H       -3.9690     2.9430     1.0620 H     1 <1>   0.0800 
 41 H       -0.8680     5.6990     0.0190 H     1 <1>   0.0800 
 42 H       -2.4370     5.8380    -0.7130 H     1 <1>   0.0800 
 43 H       -3.2140     4.1030    -2.3970 H     1 <1>   0.0800 
 44 H       -2.1780     2.7750    -2.8190 H     1 <1>   0.0800 
 45 H        7.4250     3.7880     2.0130 H     1 <1>   0.1500 
 46 H        7.0160     0.9950    -1.1790 H     1 <1>   0.1500 
 47 H        9.6810     4.3140     1.2620 H     1 <1>   0.1500 
 48 H        9.2710     1.5220    -1.9290 H     1 <1>   0.1500 
 49 H       11.0100     4.0890    -1.5640 H     1 <1>   0.0800 
 50 H       11.4930     2.4250    -1.3220 H     1 <1>   0.0800 
 51 H       11.6580     3.5750    -0.0220 H     1 <1>   0.0800 
@<TRIPOS>BOND
  1   1   2  2   
  2   2   3  am  
  3   2   4  1   
  4   3   5  1   
  5   3  27  1   
  6   4   6  1   
  7   4   7  1   
  8   4   8  1   
  9   5   9  1   
 10   5  28  1   
 11   5  29  1   
 12   6  10  1   
 13   6  30  1   
 14   6  31  1   
 15   7  11  1   
 16   7  32  1   
 17   7  33  1   
 18   8  12  1   
 19   8  34  1   
 20   8  35  1   
 21   9  13  1   
 22   9  14  2   
 23  10  15  1   
 24  10  16  1   
 25  10  36  1   
 26  11  15  1   
 27  11  17  1   
 28  11  37  1   
 29  12  16  1   
 30  12  17  1   
 31  12  38  1   
 32  13  18  1   
 33  14  19  1   
 34  15  39  1   
 35  15  40  1   
 36  16  41  1   
 37  16  42  1   
 38  17  43  1   
 39  17  44  1   
 40  18  19  2   
 41  19  20  1   
 42  20  21  ar  
 43  20  22  ar  
 44  21  23  ar  
 45  21  45  1   
 46  22  24  ar  
 47  22  46  1   
 48  23  25  ar  
 49  23  47  1   
 50  24  25  ar  
 51  24  48  1   
 52  25  26  1   
 53  26  49  1   
 54  26  50  1   
 55  26  51  1   
@<TRIPOS>SUBSTRUCTURE
  1 ****   3 GROUP 4 **** **** 0

# MOE 2024.06 (io_trps.svl 2023.06)
