@<TRIPOS>MOLECULE
5-Oxo-1-o-tolyl-pyrrolidine-3-carboxylic acid (5-methyl-[1,3,4]thiadiazol-2-yl)-
38 40 1 0 0 
SMALL
USER_CHARGES


@<TRIPOS>ATOM
  1 S       -0.0980    -0.5320    -0.1190 S.3   1 <1>  -0.0800 
  2 C       -1.7970    -0.2090    -0.2430 C.2   1 <1>   0.4420 
  3 C        0.1450     1.1790    -0.0420 C.2   1 <1>   0.1980 
  4 N       -2.0540     1.0470    -0.2200 N.2   1 <1>  -0.3380 
  5 N       -2.6260    -1.3080    -0.3440 N.am  1 <1>  -0.4940 
  6 N       -0.9410     1.8330    -0.1050 N.2   1 <1>  -0.3380 
  7 C        1.5600     1.6940     0.0880 C.3   1 <1>  -0.0600 
  8 C       -3.9860    -1.3510    -0.4680 C.2   1 <1>   0.5690 
  9 O       -4.6770    -0.3680    -0.5420 O.2   1 <1>  -0.5700 
 10 C       -4.6450    -2.7220    -0.5280 C.3   1 <1>  -0.0190 
 11 C       -6.1820    -2.6790    -0.5400 C.3   1 <1>   0.1400 
 12 C       -4.2980    -3.6340     0.6600 C.3   1 <1>  -0.0990 
 13 N       -6.5910    -3.9160     0.1550 N.am  1 <1>  -0.4770 
 14 C       -5.5340    -4.4760     0.8060 C.2   1 <1>   0.5690 
 15 C       -7.8580    -4.4850    -0.0650 C.ar  1 <1>   0.1170 
 16 O       -5.5190    -5.5210     1.4060 O.2   1 <1>  -0.5700 
 17 C       -9.0470    -3.8290     0.2710 C.ar  1 <1>  -0.1440 
 18 C       -7.9320    -5.7440    -0.6520 C.ar  1 <1>  -0.1500 
 19 C      -10.2650    -4.4260    -0.0140 C.ar  1 <1>  -0.1500 
 20 C       -9.0560    -2.4720     0.9650 C.3   1 <1>  -0.0970 
 21 C       -9.1500    -6.3350    -0.9280 C.ar  1 <1>  -0.1500 
 22 C      -10.3210    -5.6720    -0.6130 C.ar  1 <1>  -0.1500 
 23 H       -2.1450    -2.2010    -0.3180 H     1 <1>   0.3700 
 24 H        2.0060     1.3190     0.9900 H     1 <1>   0.0800 
 25 H        1.5520     2.7690     0.1230 H     1 <1>   0.0800 
 26 H        2.1440     1.3780    -0.7570 H     1 <1>   0.0800 
 27 H       -4.3340    -3.2020    -1.4380 H     1 <1>   0.0800 
 28 H       -6.5720    -2.6520    -1.5430 H     1 <1>   0.0800 
 29 H       -6.5500    -1.8320     0.0130 H     1 <1>   0.0800 
 30 H       -4.1640    -3.0710     1.5670 H     1 <1>   0.0800 
 31 H       -3.4390    -4.2490     0.4690 H     1 <1>   0.0800 
 32 H       -7.0230    -6.2650    -0.8910 H     1 <1>   0.1500 
 33 H      -11.1850    -3.9260     0.2340 H     1 <1>   0.1500 
 34 H       -8.2780    -2.4260     1.7060 H     1 <1>   0.0800 
 35 H       -9.9950    -2.3060     1.4630 H     1 <1>   0.0800 
 36 H       -8.9090    -1.6890     0.2450 H     1 <1>   0.0800 
 37 H       -9.1860    -7.3090    -1.3840 H     1 <1>   0.1500 
 38 H      -11.2730    -6.1260    -0.8270 H     1 <1>   0.1500 
@<TRIPOS>BOND
  1   1   2  1   
  2   1   3  1   
  3   2   4  2   
  4   2   5  1   
  5   3   6  2   
  6   3   7  1   
  7   4   6  1   
  8   5   8  am  
  9   5  23  1   
 10   7  24  1   
 11   7  25  1   
 12   7  26  1   
 13   8   9  2   
 14   8  10  1   
 15  10  11  1   
 16  10  12  1   
 17  10  27  1   
 18  11  13  1   
 19  11  28  1   
 20  11  29  1   
 21  12  14  1   
 22  12  30  1   
 23  12  31  1   
 24  13  14  am  
 25  13  15  1   
 26  14  16  2   
 27  15  17  ar  
 28  15  18  ar  
 29  17  19  ar  
 30  17  20  1   
 31  18  21  ar  
 32  18  32  1   
 33  19  22  ar  
 34  19  33  1   
 35  20  34  1   
 36  20  35  1   
 37  20  36  1   
 38  21  22  ar  
 39  21  37  1   
 40  22  38  1   
@<TRIPOS>SUBSTRUCTURE
  1 ****  10 GROUP 4 **** **** 0

# MOE 2024.06 (io_trps.svl 2023.06)
