@<TRIPOS>MOLECULE
5-Ethyl-2-(4-hydroxy-phenyl)-7-methyl-1,3-diaza-tricyclo[3.3.1.1*3,7*]decan-6-on
44 47 1 0 0 
SMALL
USER_CHARGES


@<TRIPOS>ATOM
  1 O       -0.1930    -0.4420     0.6590 O.2   1 <1>  -0.5700 
  2 C        0.8250    -1.0650     0.6760 C.2   1 <1>   0.4480 
  3 C        1.0190    -2.3790    -0.0840 C.3   1 <1>   0.0610 
  4 C        2.0070    -0.6780     1.5660 C.3   1 <1>   0.0610 
  5 C        1.1770    -3.4500     1.0010 C.3   1 <1>   0.3430 
  6 C        2.3580    -2.3150    -0.8310 C.3   1 <1>   0.1100 
  7 C       -0.1510    -2.7590    -1.0290 C.3   1 <1>  -0.1600 
  8 C        2.1140    -1.8010     2.6030 C.3   1 <1>   0.3430 
  9 C        3.2910    -0.7110     0.7230 C.3   1 <1>   0.1100 
 10 C        1.8420     0.6940     2.2510 C.3   1 <1>  -0.2400 
 11 N        2.3310    -3.1160     1.9110 N.4   1 <1>  -0.9590 
 12 N        3.4500    -2.0540     0.1350 N.3   1 <1>  -0.8100 
 13 C       -0.3270    -1.8310    -2.2420 C.3   1 <1>  -0.2400 
 14 C        3.6100    -3.0960     1.1620 C.3   1 <1>   0.8360 
 15 C        3.9590    -4.4780     0.5830 C.ar  1 <1>  -0.1440 
 16 C        4.7050    -4.5680    -0.5910 C.ar  1 <1>  -0.1500 
 17 C        3.5780    -5.6640     1.2140 C.ar  1 <1>  -0.1500 
 18 C        5.0310    -5.7960    -1.1360 C.ar  1 <1>  -0.1500 
 19 C        3.9050    -6.8950     0.6720 C.ar  1 <1>  -0.1500 
 20 C        4.6260    -6.9570    -0.5060 C.ar  1 <1>   0.0820 
 21 O        4.9480    -8.1380    -1.0500 O.3   1 <1>  -0.5330 
 22 H        1.3460    -4.4050     0.5300 H     1 <1>   0.0800 
 23 H        0.2640    -3.5130     1.5710 H     1 <1>   0.0800 
 24 H        2.5350    -3.2380    -1.3580 H     1 <1>   0.0800 
 25 H        2.3400    -1.5250    -1.5650 H     1 <1>   0.0800 
 26 H       -1.0710    -2.7540    -0.4680 H     1 <1>   0.0800 
 27 H       -0.0070    -3.7610    -1.3970 H     1 <1>   0.0800 
 28 H        1.2060    -1.8340     3.1850 H     1 <1>   0.0800 
 29 H        2.9350    -1.5940     3.2700 H     1 <1>   0.0800 
 30 H        4.1510    -0.4760     1.3300 H     1 <1>   0.0800 
 31 H        3.2380     0.0260    -0.0630 H     1 <1>   0.0800 
 32 H        0.9520     0.7110     2.8570 H     1 <1>   0.0800 
 33 H        1.7470     1.4690     1.5090 H     1 <1>   0.0800 
 34 H        2.6880     0.9240     2.8750 H     1 <1>   0.0800 
 35 H        2.4350    -3.8570     2.6080 H     1 <1>   0.4500 
 36 H       -0.4610    -0.8080    -1.9330 H     1 <1>   0.0800 
 37 H       -1.2030    -2.1230    -2.7950 H     1 <1>   0.0800 
 38 H        0.5150    -1.8870    -2.9090 H     1 <1>   0.0800 
 39 H        4.4140    -2.8050     1.8210 H     1 <1>   0.0800 
 40 H        5.0440    -3.6810    -1.1000 H     1 <1>   0.1500 
 41 H        3.0300    -5.6660     2.1380 H     1 <1>   0.1500 
 42 H        5.6010    -5.8620    -2.0460 H     1 <1>   0.1500 
 43 H        3.6030    -7.8020     1.1660 H     1 <1>   0.1500 
 44 H        4.6590    -8.9090    -0.5300 H     1 <1>   0.4500 
@<TRIPOS>BOND
  1   1   2  2   
  2   2   3  1   
  3   2   4  1   
  4   3   5  1   
  5   3   6  1   
  6   3   7  1   
  7   4   8  1   
  8   4   9  1   
  9   4  10  1   
 10   5  11  1   
 11   5  22  1   
 12   5  23  1   
 13   6  12  1   
 14   6  24  1   
 15   6  25  1   
 16   7  13  1   
 17   7  26  1   
 18   7  27  1   
 19   8  11  1   
 20   8  28  1   
 21   8  29  1   
 22   9  12  1   
 23   9  30  1   
 24   9  31  1   
 25  10  32  1   
 26  10  33  1   
 27  10  34  1   
 28  11  14  1   
 29  11  35  1   
 30  12  14  1   
 31  13  36  1   
 32  13  37  1   
 33  13  38  1   
 34  14  15  1   
 35  14  39  1   
 36  15  16  ar  
 37  15  17  ar  
 38  16  18  ar  
 39  16  40  1   
 40  17  19  ar  
 41  17  41  1   
 42  18  20  ar  
 43  18  42  1   
 44  19  20  ar  
 45  19  43  1   
 46  20  21  1   
 47  21  44  1   
@<TRIPOS>SUBSTRUCTURE
  1 ****  14 GROUP 4 **** **** 0

# MOE 2024.06 (io_trps.svl 2023.06)
