@<TRIPOS>MOLECULE
N-(6-Benzyl-5-methyl-7-oxo-4,7-dihydro-[1,2,4]triazolo[1,5-a]pyrimidin-2-yl)-2,2
46 48 1 0 0 
SMALL
USER_CHARGES


@<TRIPOS>ATOM
  1 O        0.4180    -2.2880     1.9430 O.2   1 <1>  -0.5700 
  2 C        0.1800    -2.1350     0.7500 C.2   1 <1>   0.5650 
  3 N       -1.1530    -2.1130     0.2800 N.pl3 1 <1>   0.5610 
  4 C        1.2300    -2.0040    -0.2290 C.2   1 <1>  -0.1240 
  5 N       -2.3550    -2.1840     0.9110 N.2   1 <1>  -0.7070 
  6 C       -1.4080    -2.0370    -1.0430 C.2   1 <1>   0.2700 
  7 C        0.9310    -1.9250    -1.5630 C.2   1 <1>  -0.0380 
  8 C        2.6610    -1.9440     0.3180 C.3   1 <1>   0.1220 
  9 C       -3.1830    -2.1410    -0.0720 C.2   1 <1>   0.5790 
 10 N       -2.6600    -2.0520    -1.3030 N.2   1 <1>  -0.5650 
 11 N       -0.3840    -1.9570    -1.9640 N.pl3 1 <1>  -0.5840 
 12 C        1.9050    -1.7860    -2.7230 C.3   1 <1>  -0.1020 
 13 C        3.0380    -0.5100     0.6690 C.ar  1 <1>  -0.1440 
 14 N       -4.5330    -2.1910     0.1920 N.am  1 <1>  -0.4930 
 15 C        3.6830     0.3020    -0.2520 C.ar  1 <1>  -0.1500 
 16 C        2.7360     0.0010     1.9230 C.ar  1 <1>  -0.1500 
 17 C       -5.6270    -2.1550    -0.6180 C.2   1 <1>   0.5690 
 18 C        4.0160     1.6050     0.0720 C.ar  1 <1>  -0.1500 
 19 C        3.0690     1.3040     2.2490 C.ar  1 <1>  -0.1500 
 20 O       -5.5550    -2.0580    -1.8200 O.2   1 <1>  -0.5700 
 21 C       -7.0180    -2.2410     0.0650 C.3   1 <1>   0.0610 
 22 C        3.7080     2.1080     1.3240 C.ar  1 <1>  -0.1500 
 23 C       -7.2100    -1.0650     1.0430 C.3   1 <1>  -0.2400 
 24 C       -8.1680    -2.1900    -0.9620 C.3   1 <1>  -0.2400 
 25 C       -7.1500    -3.5620     0.8500 C.3   1 <1>  -0.2400 
 26 H        3.3650    -2.3390    -0.3890 H     1 <1>   0.0800 
 27 H        2.7580    -2.5630     1.1930 H     1 <1>   0.0800 
 28 H       -0.6690    -1.8900    -2.9490 H     1 <1>   0.4000 
 29 H        1.7490    -2.5850    -3.4260 H     1 <1>   0.0800 
 30 H        2.9320    -1.8140    -2.4180 H     1 <1>   0.0800 
 31 H        1.7340    -0.8510    -3.2260 H     1 <1>   0.0800 
 32 H       -4.7040    -2.2670     1.1870 H     1 <1>   0.3700 
 33 H        3.9330    -0.0700    -1.2290 H     1 <1>   0.1500 
 34 H        2.2390    -0.6120     2.6560 H     1 <1>   0.1500 
 35 H        4.5150     2.2300    -0.6480 H     1 <1>   0.1500 
 36 H        2.8280     1.6900     3.2240 H     1 <1>   0.1500 
 37 H        3.9660     3.1210     1.5770 H     1 <1>   0.1500 
 38 H       -8.1880    -1.0990     1.4910 H     1 <1>   0.0800 
 39 H       -6.4800    -1.0890     1.8320 H     1 <1>   0.0800 
 40 H       -7.1110    -0.1300     0.5190 H     1 <1>   0.0800 
 41 H       -8.1260    -1.2720    -1.5230 H     1 <1>   0.0800 
 42 H       -9.1260    -2.2510    -0.4780 H     1 <1>   0.0800 
 43 H       -8.0840    -3.0070    -1.6570 H     1 <1>   0.0800 
 44 H       -6.4180    -3.6240     1.6350 H     1 <1>   0.0800 
 45 H       -7.0080    -4.3980     0.1880 H     1 <1>   0.0800 
 46 H       -8.1260    -3.6440     1.2940 H     1 <1>   0.0800 
@<TRIPOS>BOND
  1   1   2  2   
  2   2   3  1   
  3   2   4  1   
  4   3   5  1   
  5   3   6  1   
  6   4   7  2   
  7   4   8  1   
  8   5   9  2   
  9   6  10  2   
 10   6  11  1   
 11   7  11  1   
 12   7  12  1   
 13   8  13  1   
 14   8  26  1   
 15   8  27  1   
 16   9  10  1   
 17   9  14  1   
 18  11  28  1   
 19  12  29  1   
 20  12  30  1   
 21  12  31  1   
 22  13  15  ar  
 23  13  16  ar  
 24  14  17  am  
 25  14  32  1   
 26  15  18  ar  
 27  15  33  1   
 28  16  19  ar  
 29  16  34  1   
 30  17  20  2   
 31  17  21  1   
 32  18  22  ar  
 33  18  35  1   
 34  19  22  ar  
 35  19  36  1   
 36  21  23  1   
 37  21  24  1   
 38  21  25  1   
 39  22  37  1   
 40  23  38  1   
 41  23  39  1   
 42  23  40  1   
 43  24  41  1   
 44  24  42  1   
 45  24  43  1   
 46  25  44  1   
 47  25  45  1   
 48  25  46  1   
@<TRIPOS>SUBSTRUCTURE
  1 ****   3 GROUP 4 **** **** 0

# MOE 2024.06 (io_trps.svl 2023.06)
