@<TRIPOS>MOLECULE
8-(2-Methoxy-5-methyl-phenyl)-1,6-dimethyl-5,6,7,8-tetrahydro-1H-1,3,4b,8,9-pent
48 51 1 0 0 
SMALL
USER_CHARGES


@<TRIPOS>ATOM
  1 O        1.0830     2.0740    -2.3000 O.2   1 <1>  -0.5750 
  2 C        2.1230     2.0750    -1.6840 C.2   1 <1>   0.6860 
  3 N        2.8480     0.9150    -1.4520 N.am  1 <1>  -0.4420 
  4 N        2.5940     3.2640    -1.2050 N.am  1 <1>  -0.4950 
  5 C        4.0320     1.0280    -0.7390 C.2   1 <1>   0.4200 
  6 C        2.3790    -0.4100    -1.9530 C.3   1 <1>   0.0520 
  7 C        3.7580     3.3950    -0.5030 C.2   1 <1>   0.6990 
  8 N        4.9040     0.0390    -0.4040 N.pl3 1 <1>  -0.7040 
  9 C        4.5130     2.2010    -0.2650 C.2   1 <1>   0.2700 
 10 O        4.1000     4.4950    -0.1190 O.2   1 <1>  -0.5750 
 11 C        5.9190     0.5880     0.2580 C.cat 1 <1>   1.0690 
 12 N        5.7240     1.8980     0.3710 N.pl3 1 <1>  -0.7670 
 13 N        6.9950    -0.0450     0.7660 N.pl3 1 <1>  -0.5800 
 14 C        6.6660     2.8350     1.0140 C.3   1 <1>   0.3480 
 15 C        7.2060    -1.4350     0.6400 C.ar  1 <1>   0.3040 
 16 C        8.0230     0.7420     1.5060 C.3   1 <1>   0.1600 
 17 C        8.0700     2.2050     1.0260 C.3   1 <1>  -0.0880 
 18 C        7.2540    -2.0690    -0.6110 C.ar  1 <1>   0.0740 
 19 C        7.3630    -2.2010     1.7870 C.ar  1 <1>  -0.1580 
 20 C        9.0330     3.0270     1.8970 C.3   1 <1>  -0.2470 
 21 O        7.0900    -1.3060    -1.7320 O.3   1 <1>  -0.3690 
 22 C        7.4550    -3.4430    -0.6820 C.ar  1 <1>  -0.1580 
 23 C        7.5640    -3.5680     1.7140 C.ar  1 <1>  -0.1510 
 24 C        7.5430    -1.7660    -2.9900 C.3   1 <1>   0.0320 
 25 C        7.6080    -4.1830     0.4760 C.ar  1 <1>  -0.1580 
 26 C        7.7340    -4.3960     2.9770 C.3   1 <1>  -0.1050 
 27 H        2.0380     4.0970    -1.3910 H     1 <1>   0.3640 
 28 H        1.4090    -0.3250    -2.4130 H     1 <1>   0.0720 
 29 H        2.3050    -1.1050    -1.1350 H     1 <1>   0.0720 
 30 H        3.0720    -0.7880    -2.6840 H     1 <1>   0.0720 
 31 H        4.9110    -0.9360    -0.6980 H     1 <1>   0.4440 
 32 H        6.3350     3.0310     2.0210 H     1 <1>   0.0720 
 33 H        6.6870     3.7680     0.4740 H     1 <1>   0.0720 
 34 H        8.9910     0.2900     1.3620 H     1 <1>   0.0720 
 35 H        7.7920     0.7110     2.5580 H     1 <1>   0.0720 
 36 H        8.4540     2.2170     0.0200 H     1 <1>   0.0720 
 37 H        7.3230    -1.7290     2.7520 H     1 <1>   0.1420 
 38 H        8.7060     3.0500     2.9220 H     1 <1>   0.0720 
 39 H        9.0950     4.0390     1.5360 H     1 <1>   0.0720 
 40 H       10.0220     2.6020     1.8650 H     1 <1>   0.0720 
 41 H        7.4920    -3.9610    -1.6220 H     1 <1>   0.1420 
 42 H        7.4750    -0.9530    -3.6910 H     1 <1>   0.0720 
 43 H        6.9190    -2.5790    -3.3160 H     1 <1>   0.0720 
 44 H        8.5680    -2.0830    -2.9000 H     1 <1>   0.0720 
 45 H        7.7630    -5.2480     0.4100 H     1 <1>   0.1420 
 46 H        8.0260    -3.7770     3.8060 H     1 <1>   0.0720 
 47 H        8.4910    -5.1450     2.8320 H     1 <1>   0.0720 
 48 H        6.8070    -4.8850     3.2200 H     1 <1>   0.0720 
@<TRIPOS>BOND
  1   1   2  2   
  2   2   3  am  
  3   2   4  am  
  4   3   5  1   
  5   3   6  1   
  6   4   7  am  
  7   4  27  1   
  8   5   8  1   
  9   5   9  2   
 10   6  28  1   
 11   6  29  1   
 12   6  30  1   
 13   7   9  1   
 14   7  10  2   
 15   8  11  ar  
 16   8  31  1   
 17   9  12  1   
 18  11  12  ar  
 19  11  13  ar  
 20  12  14  1   
 21  13  15  1   
 22  13  16  1   
 23  14  17  1   
 24  14  32  1   
 25  14  33  1   
 26  15  18  ar  
 27  15  19  ar  
 28  16  17  1   
 29  16  34  1   
 30  16  35  1   
 31  17  20  1   
 32  17  36  1   
 33  18  21  1   
 34  18  22  ar  
 35  19  23  ar  
 36  19  37  1   
 37  20  38  1   
 38  20  39  1   
 39  20  40  1   
 40  21  24  1   
 41  22  25  ar  
 42  22  41  1   
 43  23  25  ar  
 44  23  26  1   
 45  24  42  1   
 46  24  43  1   
 47  24  44  1   
 48  25  45  1   
 49  26  46  1   
 50  26  47  1   
 51  26  48  1   
@<TRIPOS>SUBSTRUCTURE
  1 ****  11 GROUP 4 **** **** 0

# MOE 2024.06 (io_trps.svl 2023.06)
