@<TRIPOS>MOLECULE
N-Adamantan-1-yl-2-(5-benzyl-4-methyl-4H-[1,2,4]triazol-3-ylsulfanyl)-acetamide
56 60 1 0 0 
SMALL
USER_CHARGES


@<TRIPOS>ATOM
  1 S       -0.7210    -0.7520    -0.6750 S.3   1 <1>  -0.2860 
  2 C        0.8670    -1.1710    -1.4020 C.2   1 <1>   0.2420 
  3 C       -1.9060    -1.0960    -2.0690 C.3   1 <1>   0.1310 
  4 N        1.0090    -1.5430    -2.6240 N.2   1 <1>  -0.3380 
  5 N        2.0110    -1.1300    -0.7180 N.pl3 1 <1>   0.0480 
  6 C       -3.3390    -0.7630    -1.6860 C.2   1 <1>   0.5690 
  7 N        2.3150    -1.7730    -2.7830 N.2   1 <1>  -0.3380 
  8 C        2.8920    -1.5290    -1.6510 C.2   1 <1>   0.0060 
  9 C        2.2280    -0.7710     0.7000 C.3   1 <1>   0.0160 
 10 O       -4.2270    -1.2790    -2.3190 O.2   1 <1>  -0.5700 
 11 N       -3.5680     0.1040    -0.6610 N.am  1 <1>  -0.7300 
 12 C        4.3880    -1.6890    -1.4210 C.3   1 <1>   0.1630 
 13 C       -4.8510     0.5700    -0.1120 C.3   1 <1>   0.3000 
 14 C        4.6900    -2.5130    -0.1750 C.ar  1 <1>  -0.1430 
 15 C       -5.6710    -0.6100     0.4410 C.3   1 <1>  -0.1600 
 16 C       -4.5360     1.5420     1.0410 C.3   1 <1>  -0.1600 
 17 C       -5.6670     1.3180    -1.1840 C.3   1 <1>  -0.1600 
 18 C        4.1230    -3.7690    -0.0220 C.ar  1 <1>  -0.1500 
 19 C        5.5220    -2.0170     0.8190 C.ar  1 <1>  -0.1500 
 20 C       -6.9870    -0.0940     1.0570 C.3   1 <1>  -0.0800 
 21 C       -5.8420     2.0720     1.6660 C.3   1 <1>  -0.0800 
 22 C       -6.9830     1.8400    -0.5740 C.3   1 <1>  -0.0800 
 23 C        4.3760    -4.5180     1.1140 C.ar  1 <1>  -0.1500 
 24 C        5.7750    -2.7660     1.9550 C.ar  1 <1>  -0.1500 
 25 C       -6.6620     0.8830     2.2020 C.3   1 <1>  -0.1600 
 26 C       -7.7940     0.6480    -0.0270 C.3   1 <1>  -0.1600 
 27 C       -6.6580     2.8030     0.5830 C.3   1 <1>  -0.1600 
 28 C        5.2010    -4.0160     2.1040 C.ar  1 <1>  -0.1500 
 29 H       -1.8160    -2.1380    -2.3110 H     1 <1>   0.0800 
 30 H       -1.5970    -0.5010    -2.9070 H     1 <1>   0.0800 
 31 H        2.3040    -1.6700     1.2840 H     1 <1>   0.0800 
 32 H        1.4080    -0.1780     1.0600 H     1 <1>   0.0800 
 33 H        3.1380    -0.2070     0.7930 H     1 <1>   0.0800 
 34 H       -2.7560     0.4490    -0.1510 H     1 <1>   0.3700 
 35 H        4.8320    -0.7130    -1.3440 H     1 <1>   0.0800 
 36 H        4.8250    -2.1770    -2.2750 H     1 <1>   0.0800 
 37 H       -5.1020    -1.1340     1.1870 H     1 <1>   0.0800 
 38 H       -5.9030    -1.3000    -0.3510 H     1 <1>   0.0800 
 39 H       -3.9590     2.3710     0.6720 H     1 <1>   0.0800 
 40 H       -3.9620     1.0370     1.7970 H     1 <1>   0.0800 
 41 H       -5.8990     0.6550    -1.9980 H     1 <1>   0.0800 
 42 H       -5.0950     2.1400    -1.5730 H     1 <1>   0.0800 
 43 H        3.4790    -4.1680    -0.7890 H     1 <1>   0.1500 
 44 H        5.9810    -1.0490     0.7170 H     1 <1>   0.1500 
 45 H       -7.5610    -0.9230     1.4340 H     1 <1>   0.0800 
 46 H       -5.6140     2.7500     2.4710 H     1 <1>   0.0800 
 47 H       -7.5550     2.3540    -1.3280 H     1 <1>   0.0800 
 48 H        3.9320    -5.4920     1.2250 H     1 <1>   0.1500 
 49 H        6.4210    -2.3780     2.7240 H     1 <1>   0.1500 
 50 H       -6.1080     0.3730     2.9700 H     1 <1>   0.0800 
 51 H       -7.5760     1.2420     2.6440 H     1 <1>   0.0800 
 52 H       -8.7230     1.0000     0.3870 H     1 <1>   0.0800 
 53 H       -8.0310    -0.0280    -0.8300 H     1 <1>   0.0800 
 54 H       -6.1010     3.6450     0.2110 H     1 <1>   0.0800 
 55 H       -7.5710     3.1810     1.0090 H     1 <1>   0.0800 
 56 H        5.3980    -4.5990     2.9870 H     1 <1>   0.1500 
@<TRIPOS>BOND
  1   1   2  1   
  2   1   3  1   
  3   2   4  2   
  4   2   5  1   
  5   3   6  1   
  6   3  29  1   
  7   3  30  1   
  8   4   7  1   
  9   5   8  1   
 10   5   9  1   
 11   6  10  2   
 12   6  11  am  
 13   7   8  2   
 14   8  12  1   
 15   9  31  1   
 16   9  32  1   
 17   9  33  1   
 18  11  13  1   
 19  11  34  1   
 20  12  14  1   
 21  12  35  1   
 22  12  36  1   
 23  13  15  1   
 24  13  16  1   
 25  13  17  1   
 26  14  18  ar  
 27  14  19  ar  
 28  15  20  1   
 29  15  37  1   
 30  15  38  1   
 31  16  21  1   
 32  16  39  1   
 33  16  40  1   
 34  17  22  1   
 35  17  41  1   
 36  17  42  1   
 37  18  23  ar  
 38  18  43  1   
 39  19  24  ar  
 40  19  44  1   
 41  20  25  1   
 42  20  26  1   
 43  20  45  1   
 44  21  25  1   
 45  21  27  1   
 46  21  46  1   
 47  22  26  1   
 48  22  27  1   
 49  22  47  1   
 50  23  28  ar  
 51  23  48  1   
 52  24  28  ar  
 53  24  49  1   
 54  25  50  1   
 55  25  51  1   
 56  26  52  1   
 57  26  53  1   
 58  27  54  1   
 59  27  55  1   
 60  28  56  1   
@<TRIPOS>SUBSTRUCTURE
  1 ****   1 GROUP 4 **** **** 0

# MOE 2024.06 (io_trps.svl 2023.06)
