@<TRIPOS>MOLECULE
Diisopropylamino-acetic acid
28 27 1 0 0 
SMALL
USER_CHARGES


@<TRIPOS>ATOM
  1 O        1.4710     1.9810     0.7200 O.co2 1 <1>  -0.9000 
  2 C        1.7400     0.9760     0.0650 C.2   1 <1>   0.9060 
  3 O        1.9410     0.9690    -1.1610 O.co2 1 <1>  -0.9000 
  4 C        1.8570    -0.3820     0.7610 C.3   1 <1>   0.2370 
  5 N        2.2670    -1.4570    -0.2420 N.4   1 <1>  -0.9590 
  6 C        1.2170    -2.4720    -0.4990 C.3   1 <1>   0.4230 
  7 C        3.6590    -1.9410    -0.0580 C.3   1 <1>   0.4230 
  8 C       -0.0510    -1.7970    -1.0180 C.3   1 <1>  -0.2400 
  9 C        0.9360    -3.2960     0.7570 C.3   1 <1>  -0.2400 
 10 C        4.6330    -0.7620    -0.1140 C.3   1 <1>  -0.2400 
 11 C        4.0280    -2.9370    -1.1590 C.3   1 <1>  -0.2400 
 12 H        0.9020    -0.6040     1.1970 H     1 <1>   0.0800 
 13 H        2.5780    -0.2930     1.5510 H     1 <1>   0.0800 
 14 H        2.2940    -0.8490    -1.0980 H     1 <1>   0.4500 
 15 H        1.5610    -3.1360    -1.2750 H     1 <1>   0.0800 
 16 H        3.7460    -2.4270     0.9010 H     1 <1>   0.0800 
 17 H       -0.5280    -1.2000    -0.2620 H     1 <1>   0.0800 
 18 H       -0.7520    -2.5460    -1.3370 H     1 <1>   0.0800 
 19 H        0.1780    -1.1730    -1.8640 H     1 <1>   0.0800 
 20 H        0.5350    -2.6860     1.5460 H     1 <1>   0.0800 
 21 H        1.8300    -3.7830     1.1010 H     1 <1>   0.0800 
 22 H        0.2130    -4.0580     0.5280 H     1 <1>   0.0800 
 23 H        4.5030    -0.2040    -1.0250 H     1 <1>   0.0800 
 24 H        5.6460    -1.1190    -0.0790 H     1 <1>   0.0800 
 25 H        4.5040    -0.1010     0.7230 H     1 <1>   0.0800 
 26 H        3.8540    -2.5110    -2.1310 H     1 <1>   0.0800 
 27 H        3.4790    -3.8540    -1.0560 H     1 <1>   0.0800 
 28 H        5.0710    -3.1890    -1.0860 H     1 <1>   0.0800 
@<TRIPOS>BOND
  1   1   2  ar  
  2   2   3  ar  
  3   2   4  1   
  4   4   5  1   
  5   4  12  1   
  6   4  13  1   
  7   5   6  1   
  8   5   7  1   
  9   5  14  1   
 10   6   8  1   
 11   6   9  1   
 12   6  15  1   
 13   7  10  1   
 14   7  11  1   
 15   7  16  1   
 16   8  17  1   
 17   8  18  1   
 18   8  19  1   
 19   9  20  1   
 20   9  21  1   
 21   9  22  1   
 22  10  23  1   
 23  10  24  1   
 24  10  25  1   
 25  11  26  1   
 26  11  27  1   
 27  11  28  1   
@<TRIPOS>SUBSTRUCTURE
  1 ****   5 GROUP 4 **** **** 0

# MOE 2024.06 (io_trps.svl 2023.06)
