@<TRIPOS>MOLECULE
2-[(Z)-Cyclohexylimino]-6-methyl-10-oxo-1,10-dihydro-2H-1,9,10a-triaza-anthracen
51 54 1 0 0 
SMALL
USER_CHARGES


@<TRIPOS>ATOM
  1 O       -0.0590    -0.2830    -0.3510 O.2   1 <1>  -0.5700 
  2 C        0.0010    -1.4870    -0.2480 C.2   1 <1>   0.8650 
  3 N       -1.1960    -2.2250    -0.2420 N.pl3 1 <1>  -0.5760 
  4 C        1.2650    -2.1410    -0.1270 C.ar  1 <1>   0.0860 
  5 C       -1.1590    -3.5710    -0.1020 C.cat 1 <1>   0.7390 
  6 C       -2.4170    -1.5980    -0.3740 C.2   1 <1>   0.1910 
  7 C        1.2290    -3.5220     0.0140 C.ar  1 <1>   0.6590 
  8 C        2.5110    -1.5290    -0.1380 C.ar  1 <1>  -0.1500 
  9 N        0.0340    -4.1670     0.0250 N.pl3 1 <1>  -0.6530 
 10 C       -2.3490    -4.3100    -0.0910 C.2   1 <1>  -0.1800 
 11 C       -3.5930    -2.3010    -0.3670 C.2   1 <1>  -0.1380 
 12 N        2.2700    -4.3030     0.1420 N.ar  1 <1>  -0.6200 
 13 C        3.6450    -2.3130    -0.0070 C.ar  1 <1>   0.0860 
 14 C       -3.5630    -3.6920    -0.2220 C.2   1 <1>  -0.1500 
 15 C       -4.9410    -1.6120    -0.5130 C.3   1 <1>  -0.1020 
 16 C        3.4590    -3.7110     0.1270 C.ar  1 <1>   0.4100 
 17 C        4.9630    -1.7190    -0.0130 C.2   1 <1>   0.5440 
 18 N        4.5330    -4.5400     0.2540 N.pl3 1 <1>  -0.8690 
 19 O        5.8890    -2.2550    -0.5910 O.2   1 <1>  -0.5700 
 20 N        5.1920    -0.5280     0.6240 N.am  1 <1>  -0.7300 
 21 C        4.5580    -6.0110     0.3210 C.3   1 <1>   0.2890 
 22 C        6.4940     0.1920     0.6490 C.3   1 <1>   0.0600 
 23 C        5.5830    -6.4320     1.3770 C.3   1 <1>  -0.1600 
 24 C        4.9290    -6.5590    -1.0600 C.3   1 <1>  -0.1600 
 25 C        5.7430    -7.9590     1.4190 C.3   1 <1>  -0.1600 
 26 C        5.0890    -8.0860    -1.0290 C.3   1 <1>  -0.1600 
 27 C        6.1090    -8.5140     0.0360 C.3   1 <1>  -0.1600 
 28 H       -2.4360    -0.5230    -0.4870 H     1 <1>   0.1500 
 29 H        2.5930    -0.4590    -0.2570 H     1 <1>   0.1500 
 30 H        0.1170    -5.1800     0.1310 H     1 <1>   0.4500 
 31 H       -2.3000    -5.3780     0.0210 H     1 <1>   0.1500 
 32 H       -4.4860    -4.2520    -0.2150 H     1 <1>   0.1500 
 33 H       -5.4540    -1.9830    -1.3830 H     1 <1>   0.0800 
 34 H       -4.8260    -0.5470    -0.6170 H     1 <1>   0.0800 
 35 H       -5.5500    -1.8040     0.3530 H     1 <1>   0.0800 
 36 H        5.4550    -4.1260     0.0360 H     1 <1>   0.4000 
 37 H        4.4730    -0.1270     1.2290 H     1 <1>   0.3700 
 38 H        3.5910    -6.3910     0.6070 H     1 <1>   0.0800 
 39 H        7.1850    -0.2490    -0.0510 H     1 <1>   0.0800 
 40 H        6.9210     0.1380     1.6350 H     1 <1>   0.0800 
 41 H        6.3470     1.2240     0.3820 H     1 <1>   0.0800 
 42 H        5.2640    -6.0790     2.3420 H     1 <1>   0.0800 
 43 H        6.5350    -5.9860     1.1490 H     1 <1>   0.0800 
 44 H        5.8550    -6.1150    -1.3820 H     1 <1>   0.0800 
 45 H        4.1610    -6.2940    -1.7650 H     1 <1>   0.0800 
 46 H        4.8230    -8.4070     1.7520 H     1 <1>   0.0800 
 47 H        6.5110    -8.2210     2.1270 H     1 <1>   0.0800 
 48 H        5.4120    -8.4340    -1.9960 H     1 <1>   0.0800 
 49 H        4.1380    -8.5420    -0.8150 H     1 <1>   0.0800 
 50 H        6.1550    -9.5890     0.0790 H     1 <1>   0.0800 
 51 H        7.0850    -8.1560    -0.2440 H     1 <1>   0.0800 
@<TRIPOS>BOND
  1   1   2  2   
  2   2   3  1   
  3   2   4  1   
  4   3   5  ar  
  5   3   6  1   
  6   4   7  ar  
  7   4   8  ar  
  8   5   9  ar  
  9   5  10  1   
 10   6  11  2   
 11   6  28  1   
 12   7   9  1   
 13   7  12  ar  
 14   8  13  ar  
 15   8  29  1   
 16   9  30  1   
 17  10  14  2   
 18  10  31  1   
 19  11  14  1   
 20  11  15  1   
 21  12  16  ar  
 22  13  16  ar  
 23  13  17  1   
 24  14  32  1   
 25  15  33  1   
 26  15  34  1   
 27  15  35  1   
 28  16  18  1   
 29  17  19  2   
 30  17  20  am  
 31  18  21  1   
 32  18  36  1   
 33  20  22  1   
 34  20  37  1   
 35  21  23  1   
 36  21  24  1   
 37  21  38  1   
 38  22  39  1   
 39  22  40  1   
 40  22  41  1   
 41  23  25  1   
 42  23  42  1   
 43  23  43  1   
 44  24  26  1   
 45  24  44  1   
 46  24  45  1   
 47  25  27  1   
 48  25  46  1   
 49  25  47  1   
 50  26  27  1   
 51  26  48  1   
 52  26  49  1   
 53  27  50  1   
 54  27  51  1   
@<TRIPOS>SUBSTRUCTURE
  1 ****   7 GROUP 4 **** **** 0

# MOE 2024.06 (io_trps.svl 2023.06)
