@<TRIPOS>MOLECULE
2-Ethylsulfanyl-5-(3-fluoro-phenyl)-1-methyl-5,8-dihydro-1H,6H-pyrido[2,3-d]pyri
39 41 1 0 0 
SMALL
USER_CHARGES


@<TRIPOS>ATOM
  1 S        0.0070     0.0110     0.0030 S.3   1 <1>  -0.3710 
  2 C        1.4230     1.0740     0.2530 C.2   1 <1>   0.6410 
  3 C       -1.4780     1.1060     0.1490 C.3   1 <1>   0.0700 
  4 N        1.1910     2.3010     0.5250 N.2   1 <1>  -0.6610 
  5 N        2.6670     0.4890     0.1460 N.pl3 1 <1>  -0.5190 
  6 C       -1.7090     1.7810    -1.2030 C.3   1 <1>  -0.2400 
  7 C        2.2680     3.1040     0.7260 C.2   1 <1>   0.7670 
  8 C        3.7680     1.2830     0.3690 C.2   1 <1>   0.2090 
  9 C        2.7820    -0.9450    -0.2670 C.3   1 <1>   0.1290 
 10 O        2.0360     4.2510     1.0870 O.2   1 <1>  -0.5700 
 11 C        3.5880     2.6140     0.5850 C.2   1 <1>  -0.1240 
 12 N        5.0220     0.7210     0.4300 N.am  1 <1>  -0.5390 
 13 C        4.7850     3.5600     0.7430 C.3   1 <1>   0.2020 
 14 C        6.1720     1.4150     0.5930 C.2   1 <1>   0.5690 
 15 C        4.6470     4.8150    -0.1210 C.ar  1 <1>  -0.1440 
 16 C        6.1440     2.9120     0.4020 C.3   1 <1>  -0.0990 
 17 O        7.2010     0.8520     0.8520 O.2   1 <1>  -0.5700 
 18 C        4.3370     4.7160    -1.4720 C.ar  1 <1>  -0.1500 
 19 C        4.8330     6.0760     0.4370 C.ar  1 <1>  -0.1500 
 20 C        4.2270     5.8710    -2.2220 C.ar  1 <1>   0.1900 
 21 C        4.7180     7.2240    -0.3330 C.ar  1 <1>  -0.1500 
 22 F        3.9410     5.7700    -3.4920 F     1 <1>  -0.1900 
 23 C        4.4120     7.1270    -1.6790 C.ar  1 <1>  -0.1500 
 24 H       -1.2950     1.8200     0.9330 H     1 <1>   0.0800 
 25 H       -2.3080     0.4760     0.4170 H     1 <1>   0.0800 
 26 H       -0.8640     2.3940    -1.4610 H     1 <1>   0.0800 
 27 H       -2.5810     2.4070    -1.1520 H     1 <1>   0.0800 
 28 H       -1.8570     1.0410    -1.9680 H     1 <1>   0.0800 
 29 H        2.4390    -1.5790     0.5330 H     1 <1>   0.0800 
 30 H        3.7920    -1.2100    -0.5160 H     1 <1>   0.0800 
 31 H        2.1790    -1.1250    -1.1400 H     1 <1>   0.0800 
 32 H        5.1240    -0.2880     0.5160 H     1 <1>   0.3700 
 33 H        4.8080     3.8500     1.7800 H     1 <1>   0.0800 
 34 H        6.9170     3.3620     0.9970 H     1 <1>   0.0800 
 35 H        6.3890     3.0900    -0.6290 H     1 <1>   0.0800 
 36 H        4.1800     3.7660    -1.9480 H     1 <1>   0.1500 
 37 H        5.0640     6.1760     1.4840 H     1 <1>   0.1500 
 38 H        4.8620     8.1910     0.1180 H     1 <1>   0.1500 
 39 H        4.3160     8.0020    -2.2960 H     1 <1>   0.1500 
@<TRIPOS>BOND
  1   1   2  1   
  2   1   3  1   
  3   2   4  2   
  4   2   5  1   
  5   3   6  1   
  6   3  24  1   
  7   3  25  1   
  8   4   7  1   
  9   5   8  1   
 10   5   9  1   
 11   6  26  1   
 12   6  27  1   
 13   6  28  1   
 14   7  10  2   
 15   7  11  1   
 16   8  11  2   
 17   8  12  1   
 18   9  29  1   
 19   9  30  1   
 20   9  31  1   
 21  11  13  1   
 22  12  14  am  
 23  12  32  1   
 24  13  15  1   
 25  13  16  1   
 26  13  33  1   
 27  14  16  1   
 28  14  17  2   
 29  15  18  ar  
 30  15  19  ar  
 31  16  34  1   
 32  16  35  1   
 33  18  20  ar  
 34  18  36  1   
 35  19  21  ar  
 36  19  37  1   
 37  20  22  1   
 38  20  23  ar  
 39  21  23  ar  
 40  21  38  1   
 41  23  39  1   
@<TRIPOS>SUBSTRUCTURE
  1 ****  11 GROUP 4 **** **** 0

# MOE 2024.06 (io_trps.svl 2023.06)
