@<TRIPOS>MOLECULE
Cyclohexanecarboxylic acid allyl-[3-(3,4-dimethoxy-phenyl)-[1,2,4]oxadiazol-5-yl
55 57 1 0 0 
SMALL
USER_CHARGES


@<TRIPOS>ATOM
  1 O        0.0520     0.9360    -1.6750 O.2   1 <1>  -0.5700 
  2 C        0.3290     1.8440    -0.9260 C.2   1 <1>   0.5690 
  3 N        1.5620     1.8980    -0.3260 N.am  1 <1>  -0.6600 
  4 C       -0.7490     2.9060    -0.6570 C.3   1 <1>  -0.0190 
  5 C        2.6070     0.8720    -0.6630 C.3   1 <1>   0.3200 
  6 C        1.9400     2.8480     0.7530 C.3   1 <1>   0.2780 
  7 C       -1.7340     2.4260     0.4270 C.3   1 <1>  -0.1600 
  8 C       -1.5170     3.2950    -1.9380 C.3   1 <1>  -0.1600 
  9 C        3.9340     1.4830    -1.0920 C.2   1 <1>   0.2980 
 10 C        2.5660     4.0860     0.1410 C.2   1 <1>  -0.2880 
 11 C       -2.8130     3.4790     0.7170 C.3   1 <1>  -0.1600 
 12 C       -2.5930     4.3530    -1.6510 C.3   1 <1>  -0.1600 
 13 O        3.9910     2.1250    -2.2280 O.3   1 <1>  -0.0190 
 14 N        5.0240     1.4260    -0.4410 N.2   1 <1>  -0.5650 
 15 C        3.7890     4.5490     0.4200 C.2   1 <1>  -0.3000 
 16 C       -3.5620     3.8740    -0.5620 C.3   1 <1>  -0.1600 
 17 N        5.2250     2.5160    -2.3080 N.2   1 <1>  -0.4100 
 18 C        5.8380     2.1120    -1.2520 C.2   1 <1>   0.4620 
 19 C        7.2360     2.3540    -0.9400 C.ar  1 <1>   0.0540 
 20 C        7.8200     1.8890     0.2380 C.ar  1 <1>  -0.1500 
 21 C        8.0600     3.0670    -1.8110 C.ar  1 <1>  -0.1500 
 22 C        9.1510     2.1120     0.5460 C.ar  1 <1>   0.0820 
 23 C        9.3890     3.3110    -1.5210 C.ar  1 <1>  -0.1500 
 24 O        9.5640     1.5800     1.7310 O.3   1 <1>  -0.3630 
 25 C        9.9570     2.8470    -0.3380 C.ar  1 <1>   0.0820 
 26 C       10.8670     1.0590     1.8760 C.3   1 <1>   0.0400 
 27 O       11.2580     3.1080    -0.0210 O.3   1 <1>  -0.3630 
 28 C       12.0600     3.9750    -0.7920 C.3   1 <1>   0.0400 
 29 H       -0.2780     3.8030    -0.3070 H     1 <1>   0.0800 
 30 H        2.2720     0.2290    -1.4560 H     1 <1>   0.0800 
 31 H        2.7750     0.2560     0.2010 H     1 <1>   0.0800 
 32 H        2.6390     2.3770     1.4230 H     1 <1>   0.0800 
 33 H        1.0750     3.1220     1.3310 H     1 <1>   0.0800 
 34 H       -1.1990     2.2030     1.3340 H     1 <1>   0.0800 
 35 H       -2.2060     1.5170     0.0940 H     1 <1>   0.0800 
 36 H       -1.9880     2.4200    -2.3540 H     1 <1>   0.0800 
 37 H       -0.8260     3.6720    -2.6710 H     1 <1>   0.0800 
 38 H        1.9200     4.5740    -0.5680 H     1 <1>   0.1500 
 39 H       -2.3550     4.3540     1.1460 H     1 <1>   0.0800 
 40 H       -3.5130     3.0890     1.4360 H     1 <1>   0.0800 
 41 H       -3.1410     4.5610    -2.5540 H     1 <1>   0.0800 
 42 H       -2.1210     5.2670    -1.3330 H     1 <1>   0.0800 
 43 H        4.4720     4.0880     1.1140 H     1 <1>   0.1500 
 44 H        4.2150     5.4280    -0.0330 H     1 <1>   0.1500 
 45 H       -4.2700     4.6530    -0.3410 H     1 <1>   0.0800 
 46 H       -4.1120     3.0230    -0.9280 H     1 <1>   0.0800 
 47 H        7.2260     1.3330     0.9400 H     1 <1>   0.1500 
 48 H        7.6490     3.4390    -2.7340 H     1 <1>   0.1500 
 49 H        9.9640     3.8680    -2.2360 H     1 <1>   0.1500 
 50 H       10.8620     0.3680     2.6990 H     1 <1>   0.0800 
 51 H       11.5420     1.8690     2.0870 H     1 <1>   0.0800 
 52 H       11.1480     0.5530     0.9690 H     1 <1>   0.0800 
 53 H       13.0130     4.0700    -0.3040 H     1 <1>   0.0800 
 54 H       11.5820     4.9370    -0.8480 H     1 <1>   0.0800 
 55 H       12.1940     3.5510    -1.7710 H     1 <1>   0.0800 
@<TRIPOS>BOND
  1   1   2  2   
  2   2   3  am  
  3   2   4  1   
  4   3   5  1   
  5   3   6  1   
  6   4   7  1   
  7   4   8  1   
  8   4  29  1   
  9   5   9  1   
 10   5  30  1   
 11   5  31  1   
 12   6  10  1   
 13   6  32  1   
 14   6  33  1   
 15   7  11  1   
 16   7  34  1   
 17   7  35  1   
 18   8  12  1   
 19   8  36  1   
 20   8  37  1   
 21   9  13  1   
 22   9  14  2   
 23  10  15  2   
 24  10  38  1   
 25  11  16  1   
 26  11  39  1   
 27  11  40  1   
 28  12  16  1   
 29  12  41  1   
 30  12  42  1   
 31  13  17  1   
 32  14  18  1   
 33  15  43  1   
 34  15  44  1   
 35  16  45  1   
 36  16  46  1   
 37  17  18  2   
 38  18  19  1   
 39  19  20  ar  
 40  19  21  ar  
 41  20  22  ar  
 42  20  47  1   
 43  21  23  ar  
 44  21  48  1   
 45  22  24  1   
 46  22  25  ar  
 47  23  25  ar  
 48  23  49  1   
 49  24  26  1   
 50  25  27  1   
 51  26  50  1   
 52  26  51  1   
 53  26  52  1   
 54  27  28  1   
 55  28  53  1   
 56  28  54  1   
 57  28  55  1   
@<TRIPOS>SUBSTRUCTURE
  1 ****   9 GROUP 4 **** **** 0

# MOE 2024.06 (io_trps.svl 2023.06)
