@<TRIPOS>MOLECULE
8-[2-(2-Ethoxy-ethoxy)-phenyl]-1,3,7-trimethyl-1H,8H-imidazo[2,1-f]purine-2,4-di
53 56 1 0 0 
SMALL
USER_CHARGES


@<TRIPOS>ATOM
  1 O        5.1760     2.0330     3.9960 O.2   1 <1>  -0.5740 
  2 C        5.5030     1.9080     2.8340 C.2   1 <1>   0.6870 
  3 N        5.1390     2.8730     1.8990 N.am  1 <1>  -0.4250 
  4 N        6.2340     0.7950     2.4400 N.am  1 <1>  -0.4410 
  5 C        5.4470     2.7200     0.5520 C.2   1 <1>   0.7000 
  6 C        4.3620     4.0680     2.3530 C.3   1 <1>   0.0530 
  7 C        6.5780     0.6740     1.1080 C.2   1 <1>   0.4210 
  8 C        6.5160    -0.2990     3.4150 C.3   1 <1>   0.0530 
  9 O        5.0850     3.5430    -0.2730 O.2   1 <1>  -0.5740 
 10 C        6.1980     1.5720     0.1670 C.2   1 <1>   0.2710 
 11 N        7.3090    -0.3120     0.5160 N.pl3 1 <1>  -0.7030 
 12 N        6.6990     1.0990    -1.0530 N.pl3 1 <1>  -0.6330 
 13 C        7.3450    -0.0310    -0.7890 C.cat 1 <1>   1.0690 
 14 C        6.8590     1.3500    -2.3990 C.2   1 <1>   0.2230 
 15 N        7.8620    -0.5790    -1.9010 N.pl3 1 <1>  -0.5550 
 16 C        7.5760     0.3290    -2.9170 C.2   1 <1>   0.1580 
 17 C        8.4670    -1.8580    -1.9790 C.ar  1 <1>   0.3050 
 18 C        8.0560     0.1410    -4.3460 C.3   1 <1>  -0.1090 
 19 C        9.5360    -2.2110    -1.1480 C.ar  1 <1>   0.0750 
 20 C        7.9730    -2.7980    -2.8750 C.ar  1 <1>  -0.1570 
 21 O        9.9640    -1.2890    -0.2440 O.3   1 <1>  -0.3680 
 22 C       10.1110    -3.4750    -1.2530 C.ar  1 <1>  -0.1570 
 23 C        8.5430    -4.0550    -2.9710 C.ar  1 <1>  -0.1570 
 24 C       10.8350    -1.6390     0.8140 C.3   1 <1>   0.1130 
 25 C        9.6140    -4.3900    -2.1630 C.ar  1 <1>  -0.1570 
 26 C       10.9590    -0.4590     1.7770 C.3   1 <1>   0.1130 
 27 O        9.6880    -0.0460     2.2030 O.3   1 <1>  -0.5640 
 28 C        9.7260     1.0030     3.1260 C.3   1 <1>   0.1130 
 29 C        9.9370     0.4420     4.5310 C.3   1 <1>  -0.2460 
 30 H        3.3170     3.8180     2.4070 H     1 <1>   0.0730 
 31 H        4.4910     4.8930     1.6740 H     1 <1>   0.0730 
 32 H        4.6960     4.3810     3.3280 H     1 <1>   0.0730 
 33 H        6.7690     0.1210     4.3740 H     1 <1>   0.0730 
 34 H        7.3370    -0.9090     3.0860 H     1 <1>   0.0730 
 35 H        5.6400    -0.9140     3.5300 H     1 <1>   0.0730 
 36 H        8.0420    -0.8730     0.9680 H     1 <1>   0.4450 
 37 H        6.4600     2.2340    -2.8740 H     1 <1>   0.1430 
 38 H        7.8500     1.0210    -4.9280 H     1 <1>   0.0730 
 39 H        9.1170    -0.0350    -4.3570 H     1 <1>   0.0730 
 40 H        7.5600    -0.6930    -4.8080 H     1 <1>   0.0730 
 41 H        7.1340    -2.5580    -3.5000 H     1 <1>   0.1430 
 42 H       10.9460    -3.7700    -0.6430 H     1 <1>   0.1430 
 43 H        8.1550    -4.7750    -3.6720 H     1 <1>   0.1430 
 44 H       11.7970    -1.8820     0.3980 H     1 <1>   0.0730 
 45 H       10.4340    -2.4940     1.3290 H     1 <1>   0.0730 
 46 H       10.0600    -5.3670    -2.2430 H     1 <1>   0.1430 
 47 H       11.4460     0.3650     1.2850 H     1 <1>   0.0730 
 48 H       11.5410    -0.7550     2.6320 H     1 <1>   0.0730 
 49 H        8.7820     1.5150     3.0800 H     1 <1>   0.0730 
 50 H       10.5040     1.7000     2.8580 H     1 <1>   0.0730 
 51 H       10.9210     0.0250     4.6380 H     1 <1>   0.0730 
 52 H        9.2030    -0.3110     4.7530 H     1 <1>   0.0730 
 53 H        9.8360     1.2350     5.2500 H     1 <1>   0.0730 
@<TRIPOS>BOND
  1   1   2  2   
  2   2   3  am  
  3   2   4  am  
  4   3   5  am  
  5   3   6  1   
  6   4   7  1   
  7   4   8  1   
  8   5   9  2   
  9   5  10  1   
 10   6  30  1   
 11   6  31  1   
 12   6  32  1   
 13   7  10  2   
 14   7  11  1   
 15   8  33  1   
 16   8  34  1   
 17   8  35  1   
 18  10  12  1   
 19  11  13  ar  
 20  11  36  1   
 21  12  13  ar  
 22  12  14  1   
 23  13  15  ar  
 24  14  16  2   
 25  14  37  1   
 26  15  16  1   
 27  15  17  1   
 28  16  18  1   
 29  17  19  ar  
 30  17  20  ar  
 31  18  38  1   
 32  18  39  1   
 33  18  40  1   
 34  19  21  1   
 35  19  22  ar  
 36  20  23  ar  
 37  20  41  1   
 38  21  24  1   
 39  22  25  ar  
 40  22  42  1   
 41  23  25  ar  
 42  23  43  1   
 43  24  26  1   
 44  24  44  1   
 45  24  45  1   
 46  25  46  1   
 47  26  27  1   
 48  26  47  1   
 49  26  48  1   
 50  27  28  1   
 51  28  29  1   
 52  28  49  1   
 53  28  50  1   
 54  29  51  1   
 55  29  52  1   
 56  29  53  1   
@<TRIPOS>SUBSTRUCTURE
  1 ****  11 GROUP 4 **** **** 0

# MOE 2024.06 (io_trps.svl 2023.06)
