@<TRIPOS>MOLECULE
N-[3-(4-Benzoyl-piperazine-1-sulfonyl)-phenyl]-propionamide
51 53 1 0 0 
SMALL
USER_CHARGES


@<TRIPOS>ATOM
  1 S       -0.5880    -0.9800     0.7180 S.o2  1 <1>   1.4470 
  2 O       -1.1480    -2.2870     0.9820 O.2   1 <1>  -0.6500 
  3 O       -0.2440    -0.1170     1.8280 O.2   1 <1>  -0.6500 
  4 N       -1.7230    -0.1420    -0.2200 N.am  1 <1>  -0.8490 
  5 C        0.8310    -1.1490    -0.3990 C.ar  1 <1>  -0.0090 
  6 C       -3.0550    -0.1740     0.4080 C.3   1 <1>   0.1960 
  7 C       -1.3200     1.2570    -0.4690 C.3   1 <1>   0.1960 
  8 C        2.0790    -0.6430    -0.0580 C.ar  1 <1>  -0.1500 
  9 C        0.6960    -1.7800    -1.6300 C.ar  1 <1>  -0.1500 
 10 C       -4.1210     0.5190    -0.4610 C.3   1 <1>   0.1400 
 11 C       -2.3200     1.9750    -1.3890 C.3   1 <1>   0.1400 
 12 C        3.1730    -0.7430    -0.9070 C.ar  1 <1>   0.1170 
 13 C        1.7720    -1.8950    -2.4920 C.ar  1 <1>  -0.1500 
 14 N       -3.7010     1.9090    -0.8200 N.am  1 <1>  -0.6600 
 15 N        4.4030    -0.2150    -0.4900 N.am  1 <1>  -0.5470 
 16 C        3.0020    -1.3790    -2.1310 C.ar  1 <1>  -0.1500 
 17 C       -4.3790     3.0410    -0.4190 C.2   1 <1>   0.5440 
 18 C        5.4670     0.2410    -1.2200 C.2   1 <1>   0.5690 
 19 O       -3.7730     4.0940    -0.3580 O.2   1 <1>  -0.5700 
 20 C       -5.7830     3.0040    -0.0540 C.ar  1 <1>   0.0860 
 21 O        5.4810     0.2930    -2.4230 O.2   1 <1>  -0.5700 
 22 C        6.6860     0.7270    -0.4560 C.3   1 <1>  -0.0990 
 23 C       -6.7390     2.4160    -0.8840 C.ar  1 <1>  -0.1500 
 24 C       -6.2260     3.5610     1.1450 C.ar  1 <1>  -0.1500 
 25 C        7.4270    -0.4050     0.2740 C.3   1 <1>  -0.2400 
 26 C       -8.0740     2.3670    -0.5240 C.ar  1 <1>  -0.1500 
 27 C       -7.5580     3.5160     1.5120 C.ar  1 <1>  -0.1500 
 28 C       -8.4850     2.9160     0.6780 C.ar  1 <1>  -0.1500 
 29 H       -3.0170     0.3070     1.3720 H     1 <1>   0.0800 
 30 H       -3.3570    -1.1960     0.5620 H     1 <1>   0.0800 
 31 H       -0.3510     1.2790    -0.9370 H     1 <1>   0.0800 
 32 H       -1.2530     1.7990     0.4600 H     1 <1>   0.0800 
 33 H        2.1980    -0.1530     0.8930 H     1 <1>   0.1500 
 34 H       -0.2620    -2.1830    -1.9140 H     1 <1>   0.1500 
 35 H       -5.0510     0.5280     0.0790 H     1 <1>   0.0800 
 36 H       -4.2650    -0.0490    -1.3630 H     1 <1>   0.0800 
 37 H       -2.3150     1.5040    -2.3560 H     1 <1>   0.0800 
 38 H       -2.0110     2.9970    -1.5220 H     1 <1>   0.0800 
 39 H        1.6540    -2.3870    -3.4420 H     1 <1>   0.1500 
 40 H        4.5180    -0.1360     0.5180 H     1 <1>   0.3700 
 41 H        3.8320    -1.4770    -2.8070 H     1 <1>   0.1500 
 42 H        6.3780     1.4780     0.2490 H     1 <1>   0.0800 
 43 H        7.3600     1.1940    -1.1530 H     1 <1>   0.0800 
 44 H       -6.4250     1.9970    -1.8240 H     1 <1>   0.1500 
 45 H       -5.5070     4.0360     1.7900 H     1 <1>   0.1500 
 46 H        6.7910    -0.8730     1.0040 H     1 <1>   0.0800 
 47 H        8.2960    -0.0150     0.7750 H     1 <1>   0.0800 
 48 H        7.7470    -1.1510    -0.4330 H     1 <1>   0.0800 
 49 H       -8.7950     1.9070    -1.1780 H     1 <1>   0.1500 
 50 H       -7.8750     3.9510     2.4440 H     1 <1>   0.1500 
 51 H       -9.5230     2.8800     0.9620 H     1 <1>   0.1500 
@<TRIPOS>BOND
  1   1   2  2   
  2   1   3  2   
  3   1   4  am  
  4   1   5  1   
  5   4   6  1   
  6   4   7  1   
  7   5   8  ar  
  8   5   9  ar  
  9   6  10  1   
 10   6  29  1   
 11   6  30  1   
 12   7  11  1   
 13   7  31  1   
 14   7  32  1   
 15   8  12  ar  
 16   8  33  1   
 17   9  13  ar  
 18   9  34  1   
 19  10  14  1   
 20  10  35  1   
 21  10  36  1   
 22  11  14  1   
 23  11  37  1   
 24  11  38  1   
 25  12  15  1   
 26  12  16  ar  
 27  13  16  ar  
 28  13  39  1   
 29  14  17  am  
 30  15  18  am  
 31  15  40  1   
 32  16  41  1   
 33  17  19  2   
 34  17  20  1   
 35  18  21  2   
 36  18  22  1   
 37  20  23  ar  
 38  20  24  ar  
 39  22  25  1   
 40  22  42  1   
 41  22  43  1   
 42  23  26  ar  
 43  23  44  1   
 44  24  27  ar  
 45  24  45  1   
 46  25  46  1   
 47  25  47  1   
 48  25  48  1   
 49  26  28  ar  
 50  26  49  1   
 51  27  28  ar  
 52  27  50  1   
 53  28  51  1   
@<TRIPOS>SUBSTRUCTURE
  1 ****   7 GROUP 4 **** **** 0

# MOE 2024.06 (io_trps.svl 2023.06)
