@<TRIPOS>MOLECULE
6-Methoxy-4-{[(2-methoxy-ethyl)-thiophen-2-ylmethyl-amino]-methyl}-chromen-2-one
47 49 1 0 0 
SMALL
USER_CHARGES


@<TRIPOS>ATOM
  1 S       -1.4730    -0.6650    -0.1580 S.3   1 <1>  -0.0800 
  2 C       -2.9940    -0.4940    -1.0240 C.2   1 <1>  -0.1400 
  3 C       -1.5980    -2.4140    -0.1920 C.2   1 <1>  -0.1100 
  4 C       -3.5100    -1.7050    -1.3090 C.2   1 <1>  -0.1500 
  5 C       -3.4820     0.9120    -1.2980 C.3   1 <1>   0.5230 
  6 C       -2.7170    -2.7960    -0.8310 C.2   1 <1>  -0.1500 
  7 N       -3.5420     1.6490    -0.0070 N.4   1 <1>  -0.9590 
  8 C       -4.8330     1.5960     0.7250 C.3   1 <1>   0.4810 
  9 C       -2.9640     3.0220    -0.0520 C.3   1 <1>   0.3430 
 10 C       -5.1060     0.1640     1.1460 C.2   1 <1>  -0.1670 
 11 C       -1.6860     3.0460     0.8060 C.3   1 <1>   0.1200 
 12 C       -6.0400    -0.6470     0.4130 C.ar  1 <1>   0.0280 
 13 C       -4.4550    -0.3870     2.1960 C.2   1 <1>  -0.1360 
 14 O       -1.8550     2.1730     1.8880 O.3   1 <1>  -0.5600 
 15 C       -6.2020    -1.9830     0.8140 C.ar  1 <1>   0.0830 
 16 C       -6.7860    -0.2090    -0.6840 C.ar  1 <1>  -0.1500 
 17 C       -4.6570    -1.7460     2.5810 C.2   1 <1>   0.7060 
 18 C       -0.7370     2.0750     2.7180 C.3   1 <1>   0.0400 
 19 O       -5.5170    -2.4770     1.8720 O.3   1 <1>  -0.2330 
 20 C       -7.0580    -2.8360     0.1350 C.ar  1 <1>  -0.1500 
 21 C       -7.6340    -1.0580    -1.3670 C.ar  1 <1>   0.0830 
 22 O       -4.0790    -2.2600     3.5140 O.2   1 <1>  -0.5700 
 23 C       -7.7730    -2.3830    -0.9550 C.ar  1 <1>  -0.1500 
 24 O       -8.2910    -0.5270    -2.4280 O.3   1 <1>  -0.3620 
 25 C       -9.2650    -1.2690    -3.1310 C.3   1 <1>   0.0400 
 26 H       -0.8110    -2.9800     0.2760 H     1 <1>   0.1500 
 27 H       -4.4310    -1.9000    -1.8350 H     1 <1>   0.1500 
 28 H       -4.4500     0.8870    -1.7700 H     1 <1>   0.0800 
 29 H       -2.7850     1.3900    -1.9660 H     1 <1>   0.0800 
 30 H       -3.0270    -3.8160    -0.9880 H     1 <1>   0.1500 
 31 H       -2.8830     1.1490     0.6200 H     1 <1>   0.4500 
 32 H       -5.6350     1.9880     0.1230 H     1 <1>   0.0800 
 33 H       -4.7570     2.2000     1.6140 H     1 <1>   0.0800 
 34 H       -3.6650     3.7340     0.3510 H     1 <1>   0.0800 
 35 H       -2.7320     3.3170    -1.0620 H     1 <1>   0.0800 
 36 H       -1.4930     4.0400     1.1740 H     1 <1>   0.0800 
 37 H       -0.8440     2.7120     0.2240 H     1 <1>   0.0800 
 38 H       -3.7410     0.1480     2.7960 H     1 <1>   0.1500 
 39 H       -6.7320     0.8010    -1.0360 H     1 <1>   0.1500 
 40 H       -0.9660     1.3910     3.5170 H     1 <1>   0.0800 
 41 H       -0.5090     3.0440     3.1300 H     1 <1>   0.0800 
 42 H        0.0990     1.6990     2.1530 H     1 <1>   0.0800 
 43 H       -7.1590    -3.8550     0.4670 H     1 <1>   0.1500 
 44 H       -8.4270    -3.0640    -1.4670 H     1 <1>   0.1500 
 45 H       -9.6810    -0.6370    -3.8960 H     1 <1>   0.0800 
 46 H      -10.0390    -1.5690    -2.4470 H     1 <1>   0.0800 
 47 H       -8.7960    -2.1250    -3.5830 H     1 <1>   0.0800 
@<TRIPOS>BOND
  1   1   2  1   
  2   1   3  1   
  3   2   4  2   
  4   2   5  1   
  5   3   6  2   
  6   3  26  1   
  7   4   6  1   
  8   4  27  1   
  9   5   7  1   
 10   5  28  1   
 11   5  29  1   
 12   6  30  1   
 13   7   8  1   
 14   7   9  1   
 15   7  31  1   
 16   8  10  1   
 17   8  32  1   
 18   8  33  1   
 19   9  11  1   
 20   9  34  1   
 21   9  35  1   
 22  10  12  1   
 23  10  13  2   
 24  11  14  1   
 25  11  36  1   
 26  11  37  1   
 27  12  15  ar  
 28  12  16  ar  
 29  13  17  1   
 30  13  38  1   
 31  14  18  1   
 32  15  19  1   
 33  15  20  ar  
 34  16  21  ar  
 35  16  39  1   
 36  17  19  1   
 37  17  22  2   
 38  18  40  1   
 39  18  41  1   
 40  18  42  1   
 41  20  23  ar  
 42  20  43  1   
 43  21  23  ar  
 44  21  24  1   
 45  23  44  1   
 46  24  25  1   
 47  25  45  1   
 48  25  46  1   
 49  25  47  1   
@<TRIPOS>SUBSTRUCTURE
  1 ****  10 GROUP 4 **** **** 0

# MOE 2024.06 (io_trps.svl 2023.06)
