@<TRIPOS>MOLECULE
3-(2-Chloro-phenyl)-propylamine
24 24 1 0 0 
SMALL
USER_CHARGES


@<TRIPOS>ATOM
  1 CL      -0.2040    -0.4660     1.9450 Cl    1 <1>  -0.1770 
  2 C       -0.0940    -1.8260     0.8500 C.ar  1 <1>   0.1770 
  3 C        1.1360    -2.2100     0.3270 C.ar  1 <1>  -0.1440 
  4 C       -1.2600    -2.4920     0.5220 C.ar  1 <1>  -0.1500 
  5 C        1.1730    -3.2890    -0.5450 C.ar  1 <1>  -0.1500 
  6 C        2.4200    -1.4770     0.6860 C.3   1 <1>  -0.0160 
  7 C       -1.2080    -3.5660    -0.3490 C.ar  1 <1>  -0.1500 
  8 C        0.0080    -3.9610    -0.8800 C.ar  1 <1>  -0.1500 
  9 C        2.5490    -0.1980    -0.1530 C.3   1 <1>  -0.1600 
 10 C        3.7540     0.6300     0.2830 C.3   1 <1>   0.3430 
 11 N        3.7800     1.8870    -0.4990 N.4   1 <1>  -0.8530 
 12 H       -2.1960    -2.1730     0.9430 H     1 <1>   0.1500 
 13 H        2.1050    -3.6200    -0.9700 H     1 <1>   0.1500 
 14 H        3.2650    -2.1220     0.5110 H     1 <1>   0.0800 
 15 H        2.4110    -1.2420     1.7380 H     1 <1>   0.0800 
 16 H       -2.1090    -4.0920    -0.6130 H     1 <1>   0.1500 
 17 H        0.0480    -4.7990    -1.5570 H     1 <1>   0.1500 
 18 H        1.6510     0.3830    -0.0330 H     1 <1>   0.0800 
 19 H        2.6410    -0.4760    -1.1890 H     1 <1>   0.0800 
 20 H        4.6610     0.0680     0.1190 H     1 <1>   0.0800 
 21 H        3.6760     0.8530     1.3360 H     1 <1>   0.0800 
 22 H        3.8510     1.6910    -1.5040 H     1 <1>   0.4500 
 23 H        4.5770     2.4760    -0.2300 H     1 <1>   0.4500 
 24 H        2.9200     2.4250    -0.3430 H     1 <1>   0.4500 
@<TRIPOS>BOND
  1   1   2  1   
  2   2   3  ar  
  3   2   4  ar  
  4   3   5  ar  
  5   3   6  1   
  6   4   7  ar  
  7   4  12  1   
  8   5   8  ar  
  9   5  13  1   
 10   6   9  1   
 11   6  14  1   
 12   6  15  1   
 13   7   8  ar  
 14   7  16  1   
 15   8  17  1   
 16   9  10  1   
 17   9  18  1   
 18   9  19  1   
 19  10  11  1   
 20  10  20  1   
 21  10  21  1   
 22  11  22  1   
 23  11  23  1   
 24  11  24  1   
@<TRIPOS>SUBSTRUCTURE
  1 ****   3 GROUP 4 **** **** 0

# MOE 2024.06 (io_trps.svl 2023.06)
