@<TRIPOS>MOLECULE
2-Methyl-furan-3-carboxylic acid [3-(3,4-dimethoxy-phenyl)-[1,2,4]oxadiazol-5-yl
48 50 1 0 0 
SMALL
USER_CHARGES


@<TRIPOS>ATOM
  1 O        0.7720     0.0470     0.3560 O.2   1 <1>  -0.5700 
  2 C        0.6720     1.2580     0.3990 C.2   1 <1>   0.7160 
  3 N        1.4870     2.0300    -0.4020 N.am  1 <1>  -0.6600 
  4 C       -0.3050     1.8530     1.2780 C.2   1 <1>  -0.0860 
  5 C        2.5280     1.3750    -1.2700 C.3   1 <1>   0.3200 
  6 C        1.3230     3.5060    -0.5250 C.3   1 <1>   0.1400 
  7 C       -1.5440     2.3460     1.0030 C.2   1 <1>  -0.0400 
  8 C       -0.1560     2.0430     2.6670 C.2   1 <1>  -0.1500 
  9 C        3.8980     2.0390    -1.1970 C.2   1 <1>   0.2980 
 10 C        2.0840     4.2210     0.5910 C.3   1 <1>  -0.2400 
 11 O       -2.1160     2.8160     2.0850 O.3   1 <1>  -0.2800 
 12 C       -2.3100     2.4110    -0.3010 C.3   1 <1>  -0.0600 
 13 C       -1.2900     2.6340     3.0930 C.2   1 <1>  -0.0100 
 14 O        4.1350     3.0580    -1.9810 O.3   1 <1>  -0.0190 
 15 N        4.8630     1.6970    -0.4460 N.2   1 <1>  -0.5650 
 16 N        5.3500     3.4030    -1.6940 N.2   1 <1>  -0.4100 
 17 C        5.7850     2.6030    -0.7850 C.2   1 <1>   0.4620 
 18 C        7.1040     2.6470    -0.1760 C.ar  1 <1>   0.0540 
 19 C        7.4660     1.7880     0.8600 C.ar  1 <1>  -0.1500 
 20 C        8.0700     3.5580    -0.6050 C.ar  1 <1>  -0.1500 
 21 C        8.7180     1.8190     1.4480 C.ar  1 <1>   0.0820 
 22 C        9.3250     3.6150    -0.0270 C.ar  1 <1>  -0.1500 
 23 O        8.9120     0.9050     2.4400 O.3   1 <1>  -0.3630 
 24 C        9.6690     2.7550     1.0130 C.ar  1 <1>   0.0820 
 25 C       10.1660     0.2850     2.6170 C.3   1 <1>   0.0400 
 26 O       10.8900     2.8220     1.6160 O.3   1 <1>  -0.3620 
 27 C       11.8120     3.8540     1.3390 C.3   1 <1>   0.0400 
 28 H        2.1890     1.3850    -2.2900 H     1 <1>   0.0800 
 29 H        2.6600     0.3460    -0.9850 H     1 <1>   0.0800 
 30 H        0.2800     3.7660    -0.4660 H     1 <1>   0.0800 
 31 H        1.6810     3.8370    -1.4850 H     1 <1>   0.0800 
 32 H        0.7100     1.7530     3.2340 H     1 <1>   0.1500 
 33 H        1.7000     3.9380     1.5530 H     1 <1>   0.0800 
 34 H        1.9640     5.2830     0.4820 H     1 <1>   0.0800 
 35 H        3.1340     3.9970     0.5520 H     1 <1>   0.0800 
 36 H       -1.7340     1.9800    -1.1000 H     1 <1>   0.0800 
 37 H       -2.5360     3.4340    -0.5400 H     1 <1>   0.0800 
 38 H       -3.2310     1.8650    -0.2040 H     1 <1>   0.0800 
 39 H       -1.5920     2.9520     4.0750 H     1 <1>   0.1500 
 40 H        6.7540     1.0680     1.2240 H     1 <1>   0.1500 
 41 H        7.8330     4.2360    -1.4070 H     1 <1>   0.1500 
 42 H       10.0180     4.3410    -0.4050 H     1 <1>   0.1500 
 43 H       10.0130    -0.6370     3.1470 H     1 <1>   0.0800 
 44 H       10.7960     0.9350     3.1960 H     1 <1>   0.0800 
 45 H       10.6020     0.0890     1.6530 H     1 <1>   0.0800 
 46 H       12.6580     3.7280     1.9890 H     1 <1>   0.0800 
 47 H       11.3420     4.8020     1.5300 H     1 <1>   0.0800 
 48 H       12.1260     3.7760     0.3130 H     1 <1>   0.0800 
@<TRIPOS>BOND
  1   1   2  2   
  2   2   3  am  
  3   2   4  1   
  4   3   5  1   
  5   3   6  1   
  6   4   7  2   
  7   4   8  1   
  8   5   9  1   
  9   5  28  1   
 10   5  29  1   
 11   6  10  1   
 12   6  30  1   
 13   6  31  1   
 14   7  11  1   
 15   7  12  1   
 16   8  13  2   
 17   8  32  1   
 18   9  14  1   
 19   9  15  2   
 20  10  33  1   
 21  10  34  1   
 22  10  35  1   
 23  11  13  1   
 24  12  36  1   
 25  12  37  1   
 26  12  38  1   
 27  13  39  1   
 28  14  16  1   
 29  15  17  1   
 30  16  17  2   
 31  17  18  1   
 32  18  19  ar  
 33  18  20  ar  
 34  19  21  ar  
 35  19  40  1   
 36  20  22  ar  
 37  20  41  1   
 38  21  23  1   
 39  21  24  ar  
 40  22  24  ar  
 41  22  42  1   
 42  23  25  1   
 43  24  26  1   
 44  25  43  1   
 45  25  44  1   
 46  25  45  1   
 47  26  27  1   
 48  27  46  1   
 49  27  47  1   
 50  27  48  1   
@<TRIPOS>SUBSTRUCTURE
  1 ****  15 GROUP 4 **** **** 0

# MOE 2024.06 (io_trps.svl 2023.06)
