@<TRIPOS>MOLECULE
5-Ethyl-4-propyl-thiazol-2-ylamine
25 25 1 0 0 
SMALL
USER_CHARGES


@<TRIPOS>ATOM
  1 S        0.2720    -0.3770    -0.7580 S.3   1 <1>  -0.0800 
  2 C        0.1560     1.3400    -0.4520 C.2   1 <1>   0.4620 
  3 C       -1.3650    -0.5820    -0.1830 C.2   1 <1>  -0.1400 
  4 N       -0.9680     1.7100     0.0230 N.2   1 <1>  -0.5650 
  5 N        1.2190     2.1320    -0.7280 N.pl3 1 <1>  -0.8840 
  6 C       -1.8280     0.6340     0.1800 C.2   1 <1>   0.0460 
  7 C       -1.8440    -2.0290    -0.2450 C.3   1 <1>   0.0200 
  8 C       -3.1910     1.0030     0.7470 C.3   1 <1>   0.0210 
  9 C       -3.2820    -2.2740     0.2150 C.3   1 <1>  -0.2400 
 10 C       -4.1100     1.5570    -0.3500 C.3   1 <1>  -0.1600 
 11 C       -5.4980     1.9110     0.1960 C.3   1 <1>  -0.2400 
 12 H        1.1380     3.1390    -0.5890 H     1 <1>   0.4000 
 13 H        2.0700     1.7730    -1.1600 H     1 <1>   0.4000 
 14 H       -1.1830    -2.6330     0.3520 H     1 <1>   0.0800 
 15 H       -1.7530    -2.3640    -1.2640 H     1 <1>   0.0800 
 16 H       -3.0550     1.7450     1.5130 H     1 <1>   0.0800 
 17 H       -3.6500     0.1550     1.2110 H     1 <1>   0.0800 
 18 H       -3.3790    -2.0640     1.2650 H     1 <1>   0.0800 
 19 H       -3.5430    -3.3050     0.0560 H     1 <1>   0.0800 
 20 H       -3.9650    -1.6610    -0.3440 H     1 <1>   0.0800 
 21 H       -4.2080     0.8270    -1.1340 H     1 <1>   0.0800 
 22 H       -3.6570     2.4370    -0.7740 H     1 <1>   0.0800 
 23 H       -6.1140     2.3010    -0.5940 H     1 <1>   0.0800 
 24 H       -5.4180     2.6580     0.9670 H     1 <1>   0.0800 
 25 H       -5.9770     1.0380     0.6050 H     1 <1>   0.0800 
@<TRIPOS>BOND
  1   1   2  1   
  2   1   3  1   
  3   2   4  2   
  4   2   5  1   
  5   3   6  2   
  6   3   7  1   
  7   4   6  1   
  8   5  12  1   
  9   5  13  1   
 10   6   8  1   
 11   7   9  1   
 12   7  14  1   
 13   7  15  1   
 14   8  10  1   
 15   8  16  1   
 16   8  17  1   
 17   9  18  1   
 18   9  19  1   
 19   9  20  1   
 20  10  11  1   
 21  10  21  1   
 22  10  22  1   
 23  11  23  1   
 24  11  24  1   
 25  11  25  1   
@<TRIPOS>SUBSTRUCTURE
  1 ****   6 GROUP 4 **** **** 0

# MOE 2024.06 (io_trps.svl 2023.06)
