@<TRIPOS>MOLECULE
2-[4-Allyl-5-(4-amino-phenyl)-4H-[1,2,4]triazol-3-ylsulfanyl]-N-cyclohexyl-aceta
51 53 1 0 0 
SMALL
USER_CHARGES


@<TRIPOS>ATOM
  1 S        0.3710    -0.6960     0.3460 S.3   1 <1>  -0.2860 
  2 C       -1.2450    -1.1840    -0.2620 C.2   1 <1>   0.2420 
  3 C        1.5280    -1.6660    -0.7400 C.3   1 <1>   0.1310 
  4 N       -1.4180    -2.0010    -1.2380 N.2   1 <1>  -0.3380 
  5 N       -2.3790    -0.7270     0.2560 N.pl3 1 <1>   0.0480 
  6 C        2.9730    -1.2610    -0.4990 C.2   1 <1>   0.5690 
  7 N       -2.7380    -2.0990    -1.3980 N.2   1 <1>  -0.3380 
  8 C       -3.3080    -1.3380    -0.5030 C.2   1 <1>   0.1330 
  9 C       -2.5690     0.2420     1.3540 C.3   1 <1>   0.2340 
 10 O        3.8340    -2.0970    -0.6180 O.2   1 <1>  -0.5700 
 11 N        3.2580     0.0270    -0.1720 N.am  1 <1>  -0.7300 
 12 C       -4.7260    -1.1490    -0.3470 C.ar  1 <1>   0.0530 
 13 C       -2.7200     1.6480     0.7960 C.2   1 <1>  -0.2880 
 14 C        4.5990     0.5670     0.0950 C.3   1 <1>   0.2200 
 15 C       -5.4640    -0.4740    -1.3160 C.ar  1 <1>  -0.1500 
 16 C       -5.4050    -1.6230     0.7750 C.ar  1 <1>  -0.1500 
 17 C       -1.8920     2.6680     1.0460 C.2   1 <1>  -0.3000 
 18 C        4.6660     1.0250     1.5560 C.3   1 <1>  -0.1600 
 19 C        4.8640     1.7310    -0.8660 C.3   1 <1>  -0.1600 
 20 C       -6.8190    -0.2580    -1.1600 C.ar  1 <1>  -0.1500 
 21 C       -6.7600    -1.4070     0.9330 C.ar  1 <1>  -0.1500 
 22 C        6.0100     1.7000     1.8650 C.3   1 <1>  -0.1600 
 23 C        6.2090     2.4070    -0.5610 C.3   1 <1>  -0.1600 
 24 C       -7.4820    -0.7130    -0.0290 C.ar  1 <1>   0.1000 
 25 C        6.2810     2.8650     0.9020 C.3   1 <1>  -0.1600 
 26 N       -8.8330    -0.4860     0.1340 N.pl3 1 <1>  -0.9000 
 27 H        1.2520    -1.4730    -1.7590 H     1 <1>   0.0800 
 28 H        1.3830    -2.7050    -0.5120 H     1 <1>   0.0800 
 29 H       -1.7230     0.1940     2.0160 H     1 <1>   0.0800 
 30 H       -3.4470    -0.0230     1.9140 H     1 <1>   0.0800 
 31 H        2.4870     0.6810    -0.0300 H     1 <1>   0.3700 
 32 H       -3.5840     1.7490     0.1590 H     1 <1>   0.1500 
 33 H        5.3390    -0.2000    -0.0680 H     1 <1>   0.0800 
 34 H       -4.9610    -0.1230    -2.2000 H     1 <1>   0.1500 
 35 H       -4.8630    -2.1750     1.5230 H     1 <1>   0.1500 
 36 H       -2.0190     3.6570     0.6370 H     1 <1>   0.1500 
 37 H       -1.0190     2.6070     1.6730 H     1 <1>   0.1500 
 38 H        4.5410     0.1720     2.1990 H     1 <1>   0.0800 
 39 H        3.8710     1.7220     1.7530 H     1 <1>   0.0800 
 40 H        4.0780     2.4600    -0.7760 H     1 <1>   0.0800 
 41 H        4.8740     1.3600    -1.8760 H     1 <1>   0.0800 
 42 H       -7.3720     0.2630    -1.9210 H     1 <1>   0.1500 
 43 H       -7.2690    -1.7820     1.8020 H     1 <1>   0.1500 
 44 H        6.8010     0.9740     1.7760 H     1 <1>   0.0800 
 45 H        6.0080     2.0620     2.8790 H     1 <1>   0.0800 
 46 H        6.3430     3.2540    -1.2110 H     1 <1>   0.0800 
 47 H        7.0090     1.7130    -0.7560 H     1 <1>   0.0800 
 48 H        7.2540     3.2780     1.1030 H     1 <1>   0.0800 
 49 H        5.5530     3.6410     1.0690 H     1 <1>   0.0800 
 50 H       -9.2160    -0.5460     1.0820 H     1 <1>   0.4000 
 51 H       -9.2580     0.2630    -0.4190 H     1 <1>   0.4000 
@<TRIPOS>BOND
  1   1   2  1   
  2   1   3  1   
  3   2   4  2   
  4   2   5  1   
  5   3   6  1   
  6   3  27  1   
  7   3  28  1   
  8   4   7  1   
  9   5   8  1   
 10   5   9  1   
 11   6  10  2   
 12   6  11  am  
 13   7   8  2   
 14   8  12  1   
 15   9  13  1   
 16   9  29  1   
 17   9  30  1   
 18  11  14  1   
 19  11  31  1   
 20  12  15  ar  
 21  12  16  ar  
 22  13  17  2   
 23  13  32  1   
 24  14  18  1   
 25  14  19  1   
 26  14  33  1   
 27  15  20  ar  
 28  15  34  1   
 29  16  21  ar  
 30  16  35  1   
 31  17  36  1   
 32  17  37  1   
 33  18  22  1   
 34  18  38  1   
 35  18  39  1   
 36  19  23  1   
 37  19  40  1   
 38  19  41  1   
 39  20  24  ar  
 40  20  42  1   
 41  21  24  ar  
 42  21  43  1   
 43  22  25  1   
 44  22  44  1   
 45  22  45  1   
 46  23  25  1   
 47  23  46  1   
 48  23  47  1   
 49  24  26  1   
 50  25  48  1   
 51  25  49  1   
 52  26  50  1   
 53  26  51  1   
@<TRIPOS>SUBSTRUCTURE
  1 ****   2 GROUP 4 **** **** 0

# MOE 2024.06 (io_trps.svl 2023.06)
