@<TRIPOS>MOLECULE
8-[4-(3-Chloro-phenyl)-piperazin-1-yl]-3-methyl-7-(2-methyl-allyl)-3,7-dihydro-p
53 56 1 0 0 
SMALL
USER_CHARGES


@<TRIPOS>ATOM
  1 CL      -1.0020    -0.6350     1.5570 Cl    1 <1>  -0.1840 
  2 C       -1.7520    -1.7790     0.4720 C.ar  1 <1>   0.1700 
  3 C       -3.1150    -1.7120     0.2620 C.ar  1 <1>  -0.1570 
  4 C       -0.9690    -2.7320    -0.1520 C.ar  1 <1>  -0.1570 
  5 C       -3.7280    -2.6180    -0.5970 C.ar  1 <1>   0.0930 
  6 C       -1.5710    -3.6370    -1.0100 C.ar  1 <1>  -0.1570 
  7 N       -5.1010    -2.5940    -0.8310 N.pl3 1 <1>  -0.8410 
  8 C       -2.9370    -3.5750    -1.2270 C.ar  1 <1>  -0.1570 
  9 C       -5.9210    -3.7210    -0.3150 C.3   1 <1>   0.2020 
 10 C       -5.8070    -1.3010    -1.0610 C.3   1 <1>   0.2020 
 11 C       -6.7580    -3.2710     0.8950 C.3   1 <1>   0.1610 
 12 C       -6.6820    -0.9040     0.1440 C.3   1 <1>   0.1610 
 13 N       -7.5630    -2.0380     0.5920 N.pl3 1 <1>  -0.5960 
 14 C       -8.9150    -2.0210     0.5840 C.cat 1 <1>   1.0690 
 15 N       -9.6400    -3.1250     0.3810 N.pl3 1 <1>  -0.7040 
 16 N       -9.7450    -0.9850     0.7570 N.pl3 1 <1>  -0.7670 
 17 C      -10.9580    -2.7920     0.3900 C.2   1 <1>   0.4210 
 18 C      -11.0620    -1.4660     0.6300 C.2   1 <1>   0.2710 
 19 C       -9.4730     0.4350     1.0680 C.3   1 <1>   0.4870 
 20 N      -12.0440    -3.6280     0.1840 N.am  1 <1>  -0.4410 
 21 C      -12.3750    -0.8920     0.7030 C.2   1 <1>   0.6990 
 22 C       -9.4450     1.2650    -0.2150 C.2   1 <1>  -0.2830 
 23 C      -13.3080    -3.0580     0.2130 C.2   1 <1>   0.6860 
 24 C      -11.8670    -5.0860    -0.0840 C.3   1 <1>   0.0530 
 25 O      -12.5940     0.2710     0.9780 O.2   1 <1>  -0.5740 
 26 N      -13.4330    -1.7240     0.4730 N.am  1 <1>  -0.4950 
 27 C       -9.5310     0.8090    -1.4730 C.2   1 <1>  -0.3060 
 28 C       -9.3100     2.7560     0.0640 C.3   1 <1>  -0.1090 
 29 O      -14.3110    -3.7030     0.0150 O.2   1 <1>  -0.5740 
 30 H       -3.6850    -0.9630     0.7700 H     1 <1>   0.1430 
 31 H        0.0900    -2.7610     0.0300 H     1 <1>   0.1430 
 32 H       -0.9770    -4.3840    -1.5090 H     1 <1>   0.1430 
 33 H       -3.4040    -4.2710    -1.8990 H     1 <1>   0.1430 
 34 H       -5.2750    -4.5310    -0.0200 H     1 <1>   0.0730 
 35 H       -6.5620    -4.0790    -1.1010 H     1 <1>   0.0730 
 36 H       -6.4240    -1.3950    -1.9380 H     1 <1>   0.0730 
 37 H       -5.0870    -0.5240    -1.2580 H     1 <1>   0.0730 
 38 H       -6.0820    -3.0540     1.7050 H     1 <1>   0.0730 
 39 H       -7.3880    -4.0810     1.2160 H     1 <1>   0.0730 
 40 H       -7.2560    -0.0510    -0.1510 H     1 <1>   0.0730 
 41 H       -6.0420    -0.6100     0.9580 H     1 <1>   0.0730 
 42 H       -9.2530    -4.0400     0.1780 H     1 <1>   0.4450 
 43 H       -8.5360     0.5270     1.5900 H     1 <1>   0.0730 
 44 H      -10.2400     0.8120     1.7240 H     1 <1>   0.0730 
 45 H      -11.4720    -5.2290    -1.0750 H     1 <1>   0.0730 
 46 H      -12.8080    -5.6040    -0.0150 H     1 <1>   0.0730 
 47 H      -11.1950    -5.5160     0.6380 H     1 <1>   0.0730 
 48 H      -14.3750    -1.3380     0.5060 H     1 <1>   0.3640 
 49 H       -9.5100     1.4520    -2.3390 H     1 <1>   0.1430 
 50 H       -9.6320    -0.2190    -1.7690 H     1 <1>   0.1430 
 51 H       -8.4010     2.9620     0.6010 H     1 <1>   0.0730 
 52 H      -10.1450     3.1050     0.6480 H     1 <1>   0.0730 
 53 H       -9.2920     3.3170    -0.8540 H     1 <1>   0.0730 
@<TRIPOS>BOND
  1   1   2  1   
  2   2   3  ar  
  3   2   4  ar  
  4   3   5  ar  
  5   3  30  1   
  6   4   6  ar  
  7   4  31  1   
  8   5   7  1   
  9   5   8  ar  
 10   6   8  ar  
 11   6  32  1   
 12   7   9  1   
 13   7  10  1   
 14   8  33  1   
 15   9  11  1   
 16   9  34  1   
 17   9  35  1   
 18  10  12  1   
 19  10  36  1   
 20  10  37  1   
 21  11  13  1   
 22  11  38  1   
 23  11  39  1   
 24  12  13  1   
 25  12  40  1   
 26  12  41  1   
 27  13  14  ar  
 28  14  15  ar  
 29  14  16  ar  
 30  15  17  1   
 31  15  42  1   
 32  16  18  1   
 33  16  19  1   
 34  17  18  2   
 35  17  20  1   
 36  18  21  1   
 37  19  22  1   
 38  19  43  1   
 39  19  44  1   
 40  20  23  am  
 41  20  24  1   
 42  21  25  2   
 43  21  26  am  
 44  22  27  2   
 45  22  28  1   
 46  23  26  am  
 47  23  29  2   
 48  24  45  1   
 49  24  46  1   
 50  24  47  1   
 51  26  48  1   
 52  27  49  1   
 53  27  50  1   
 54  28  51  1   
 55  28  52  1   
 56  28  53  1   
@<TRIPOS>SUBSTRUCTURE
  1 ****  13 GROUP 4 **** **** 0

# MOE 2024.06 (io_trps.svl 2023.06)
