@<TRIPOS>MOLECULE
2-[(Z)-Cyclopentylimino]-6-methyl-10-oxo-1,10-dihydro-2H-1,9,10a-triaza-anthrace
52 55 1 0 0 
SMALL
USER_CHARGES


@<TRIPOS>ATOM
  1 O        0.3430    -0.3220     0.1120 O.2   1 <1>  -0.5700 
  2 C        0.2750    -1.5290     0.0720 C.2   1 <1>   0.8650 
  3 N       -0.9950    -2.1330     0.0500 N.pl3 1 <1>  -0.5760 
  4 C        1.4630    -2.3210     0.0410 C.ar  1 <1>   0.0860 
  5 C       -1.1010    -3.4810    -0.0180 C.cat 1 <1>   0.7390 
  6 C       -2.1440    -1.3720     0.0940 C.2   1 <1>   0.1910 
  7 C        1.2810    -3.6960    -0.0290 C.ar  1 <1>   0.6590 
  8 C        2.7680    -1.8460     0.0770 C.ar  1 <1>  -0.1500 
  9 N        0.0240    -4.2090    -0.0590 N.pl3 1 <1>  -0.6530 
 10 C       -2.3630    -4.0870    -0.0420 C.2   1 <1>  -0.1800 
 11 C       -3.3890    -1.9430     0.0710 C.2   1 <1>  -0.1380 
 12 N        2.2340    -4.5910    -0.0690 N.ar  1 <1>  -0.6200 
 13 C        3.8140    -2.7550     0.0430 C.ar  1 <1>   0.0860 
 14 C       -3.5060    -3.3350     0.0010 C.2   1 <1>  -0.1500 
 15 C       -4.6570    -1.1060     0.1200 C.3   1 <1>  -0.1020 
 16 C        3.4790    -4.1280    -0.0310 C.ar  1 <1>   0.4100 
 17 C        5.1890    -2.3110     0.0880 C.2   1 <1>   0.5440 
 18 N        4.4590    -5.0730    -0.0730 N.pl3 1 <1>  -0.8690 
 19 O        6.0250    -2.9100     0.7370 O.2   1 <1>  -0.5700 
 20 N        5.5860    -1.1930    -0.5890 N.am  1 <1>  -0.7300 
 21 C        4.3320    -6.5370     0.0330 C.3   1 <1>   0.2890 
 22 C        6.9610    -0.6730    -0.5900 C.3   1 <1>   0.2780 
 23 C        4.6280    -6.9430     1.4700 C.3   1 <1>  -0.1600 
 24 C        5.4760    -7.1690    -0.7490 C.3   1 <1>  -0.1600 
 25 C        6.8850     0.7850    -0.9860 C.2   1 <1>  -0.2880 
 26 C        6.1550    -6.9270     1.5970 C.3   1 <1>  -0.1600 
 27 C        6.7000    -7.1050     0.1740 C.3   1 <1>  -0.1600 
 28 C        7.3890     1.3110    -2.1070 C.2   1 <1>  -0.3000 
 29 H       -2.0500    -0.2960     0.1490 H     1 <1>   0.1500 
 30 H        2.9630    -0.7870     0.1420 H     1 <1>   0.1500 
 31 H       -0.0030    -5.2280    -0.1100 H     1 <1>   0.4500 
 32 H       -2.4290    -5.1580    -0.0970 H     1 <1>   0.1500 
 33 H       -4.4840    -3.7920    -0.0180 H     1 <1>   0.1500 
 34 H       -5.2420    -1.3690     0.9850 H     1 <1>   0.0800 
 35 H       -5.2500    -1.2810    -0.7610 H     1 <1>   0.0800 
 36 H       -4.4310    -0.0550     0.1720 H     1 <1>   0.0800 
 37 H        5.4100    -4.7530     0.1760 H     1 <1>   0.4000 
 38 H        4.9840    -0.7400    -1.2770 H     1 <1>   0.3700 
 39 H        3.3680    -6.8750    -0.3080 H     1 <1>   0.0800 
 40 H        7.5530    -1.2280    -1.2980 H     1 <1>   0.0800 
 41 H        7.4010    -0.7760     0.3880 H     1 <1>   0.0800 
 42 H        4.2750    -7.9480     1.6220 H     1 <1>   0.0800 
 43 H        4.1470    -6.2960     2.1820 H     1 <1>   0.0800 
 44 H        5.6420    -6.6790    -1.6920 H     1 <1>   0.0800 
 45 H        5.2340    -8.2000    -0.9350 H     1 <1>   0.0800 
 46 H        6.3710     1.3780    -0.2480 H     1 <1>   0.1500 
 47 H        6.4990    -7.7070     2.2550 H     1 <1>   0.0800 
 48 H        6.4770    -5.9760     1.9880 H     1 <1>   0.0800 
 49 H        7.3140    -6.2590    -0.0860 H     1 <1>   0.0800 
 50 H        7.2910    -8.0010     0.0880 H     1 <1>   0.0800 
 51 H        7.3230     2.3550    -2.3630 H     1 <1>   0.1500 
 52 H        7.9100     0.7480    -2.8640 H     1 <1>   0.1500 
@<TRIPOS>BOND
  1   1   2  2   
  2   2   3  1   
  3   2   4  1   
  4   3   5  ar  
  5   3   6  1   
  6   4   7  ar  
  7   4   8  ar  
  8   5   9  ar  
  9   5  10  1   
 10   6  11  2   
 11   6  29  1   
 12   7   9  1   
 13   7  12  ar  
 14   8  13  ar  
 15   8  30  1   
 16   9  31  1   
 17  10  14  2   
 18  10  32  1   
 19  11  14  1   
 20  11  15  1   
 21  12  16  ar  
 22  13  16  ar  
 23  13  17  1   
 24  14  33  1   
 25  15  34  1   
 26  15  35  1   
 27  15  36  1   
 28  16  18  1   
 29  17  19  2   
 30  17  20  am  
 31  18  21  1   
 32  18  37  1   
 33  20  22  1   
 34  20  38  1   
 35  21  23  1   
 36  21  24  1   
 37  21  39  1   
 38  22  25  1   
 39  22  40  1   
 40  22  41  1   
 41  23  26  1   
 42  23  42  1   
 43  23  43  1   
 44  24  27  1   
 45  24  44  1   
 46  24  45  1   
 47  25  28  2   
 48  25  46  1   
 49  26  27  1   
 50  26  47  1   
 51  26  48  1   
 52  27  49  1   
 53  27  50  1   
 54  28  51  1   
 55  28  52  1   
@<TRIPOS>SUBSTRUCTURE
  1 ****   4 GROUP 4 **** **** 0

# MOE 2024.06 (io_trps.svl 2023.06)
