@<TRIPOS>MOLECULE
2-Methylsulfanyl-5-(3,4,5-trimethoxy-phenyl)-5,8-dihydro-3H,6H-pyrido[2,3-d]pyri
45 47 1 0 0 
SMALL
USER_CHARGES


@<TRIPOS>ATOM
  1 S       -0.0120     0.3070    -0.3500 S.3   1 <1>  -0.3710 
  2 C        1.5300     1.1810    -0.3870 C.2   1 <1>   0.6410 
  3 C       -1.1110     1.2680    -1.4870 C.3   1 <1>  -0.0100 
  4 N        2.4980     0.6210     0.3720 N.pl3 1 <1>  -0.5500 
  5 N        1.6490     2.2390    -1.0900 N.2   1 <1>  -0.6610 
  6 C        3.7140     1.2130     0.4600 C.2   1 <1>   0.2090 
  7 C        2.8730     2.8470    -1.0640 C.2   1 <1>   0.7670 
  8 N        4.6960     0.6030     1.1940 N.am  1 <1>  -0.5390 
  9 C        3.9150     2.3740    -0.2210 C.2   1 <1>  -0.1240 
 10 O        3.0300     3.7900    -1.8270 O.2   1 <1>  -0.5700 
 11 C        5.9210     1.1420     1.4020 C.2   1 <1>   0.5690 
 12 C        5.2630     3.1010    -0.1150 C.3   1 <1>   0.2020 
 13 O        6.8100     0.4900     1.8790 O.2   1 <1>  -0.5700 
 14 C        6.1340     2.6000     1.0580 C.3   1 <1>  -0.0990 
 15 C        5.1270     4.6160     0.0440 C.ar  1 <1>  -0.1430 
 16 C        4.1750     5.1690     0.8900 C.ar  1 <1>  -0.1500 
 17 C        5.9770     5.4610    -0.6540 C.ar  1 <1>  -0.1500 
 18 C        4.0490     6.5490     1.0180 C.ar  1 <1>   0.0830 
 19 C        5.8920     6.8360    -0.5200 C.ar  1 <1>   0.0830 
 20 O        3.1010     7.1120     1.8220 O.3   1 <1>  -0.3630 
 21 C        4.9060     7.3900     0.3060 C.ar  1 <1>   0.0830 
 22 O        6.8030     7.5550    -1.2330 O.3   1 <1>  -0.3630 
 23 C        1.9320     6.4020     2.1670 C.3   1 <1>   0.0400 
 24 O        4.7550     8.7390     0.4100 O.3   1 <1>  -0.3630 
 25 C        7.4110     8.6860    -0.6470 C.3   1 <1>   0.0400 
 26 C        3.7560     9.2860    -0.4180 C.3   1 <1>   0.0400 
 27 H       -2.0700     0.7830    -1.5100 H     1 <1>   0.0800 
 28 H       -0.6570     1.2720    -2.4620 H     1 <1>   0.0800 
 29 H       -1.1930     2.2690    -1.1010 H     1 <1>   0.0800 
 30 H        2.2580    -0.2370     0.8700 H     1 <1>   0.4000 
 31 H        4.5940    -0.3560     1.5260 H     1 <1>   0.3700 
 32 H        5.7890     2.8970    -1.0320 H     1 <1>   0.0800 
 33 H        7.1720     2.7660     0.8330 H     1 <1>   0.0800 
 34 H        5.9040     3.1600     1.9450 H     1 <1>   0.0800 
 35 H        3.5310     4.5170     1.4470 H     1 <1>   0.1500 
 36 H        6.7260     5.0630    -1.3150 H     1 <1>   0.1500 
 37 H        1.2460     7.0930     2.6210 H     1 <1>   0.0800 
 38 H        2.1870     5.6290     2.8690 H     1 <1>   0.0800 
 39 H        1.4990     5.9870     1.2740 H     1 <1>   0.0800 
 40 H        8.3490     8.8570    -1.1420 H     1 <1>   0.0800 
 41 H        7.5730     8.4970     0.4000 H     1 <1>   0.0800 
 42 H        6.7680     9.5370    -0.7820 H     1 <1>   0.0800 
 43 H        3.7400    10.3500    -0.2690 H     1 <1>   0.0800 
 44 H        2.8060     8.8610    -0.1480 H     1 <1>   0.0800 
 45 H        3.9920     9.0570    -1.4430 H     1 <1>   0.0800 
@<TRIPOS>BOND
  1   1   2  1   
  2   1   3  1   
  3   2   4  1   
  4   2   5  2   
  5   3  27  1   
  6   3  28  1   
  7   3  29  1   
  8   4   6  1   
  9   4  30  1   
 10   5   7  1   
 11   6   8  1   
 12   6   9  2   
 13   7   9  1   
 14   7  10  2   
 15   8  11  am  
 16   8  31  1   
 17   9  12  1   
 18  11  13  2   
 19  11  14  1   
 20  12  14  1   
 21  12  15  1   
 22  12  32  1   
 23  14  33  1   
 24  14  34  1   
 25  15  16  ar  
 26  15  17  ar  
 27  16  18  ar  
 28  16  35  1   
 29  17  19  ar  
 30  17  36  1   
 31  18  20  1   
 32  18  21  ar  
 33  19  21  ar  
 34  19  22  1   
 35  20  23  1   
 36  21  24  1   
 37  22  25  1   
 38  23  37  1   
 39  23  38  1   
 40  23  39  1   
 41  24  26  1   
 42  25  40  1   
 43  25  41  1   
 44  25  42  1   
 45  26  43  1   
 46  26  44  1   
 47  26  45  1   
@<TRIPOS>SUBSTRUCTURE
  1 ****  15 GROUP 4 **** **** 0

# MOE 2024.06 (io_trps.svl 2023.06)
