@<TRIPOS>MOLECULE
8-(5-Chloro-2-methoxy-phenyl)-1-methyl-3-propyl-7,8-dihydro-1H,6H-imidazo[2,1-f]
48 51 1 0 0 
SMALL
USER_CHARGES


@<TRIPOS>ATOM
  1 CL       5.8210     0.7260     2.3250 Cl    1 <1>  -0.1840 
  2 C        4.6690     1.2870     1.1420 C.ar  1 <1>   0.1700 
  3 C        3.8910     2.3870     1.4340 C.ar  1 <1>  -0.1580 
  4 C        4.5540     0.6220    -0.0610 C.ar  1 <1>  -0.1580 
  5 C        2.9660     2.8550     0.5090 C.ar  1 <1>   0.3040 
  6 C        3.6380     1.0710    -0.9950 C.ar  1 <1>  -0.1580 
  7 N        2.1860     3.9880     0.8400 N.pl3 1 <1>  -0.5800 
  8 C        2.8450     2.1840    -0.7230 C.ar  1 <1>   0.0740 
  9 C        0.8850     4.2100     0.6140 C.cat 1 <1>   1.0690 
 10 C        2.7510     5.2130     1.4960 C.3   1 <1>   0.1600 
 11 O        1.9420     2.6500    -1.6350 O.3   1 <1>  -0.3690 
 12 N       -0.1110     3.5320     0.0610 N.pl3 1 <1>  -0.7040 
 13 N        0.4680     5.3800     1.0330 N.pl3 1 <1>  -0.7670 
 14 C        1.5500     6.1820     1.6210 C.3   1 <1>   0.3480 
 15 C        2.0660     2.3290    -3.0080 C.3   1 <1>   0.0320 
 16 C       -1.2220     4.3280     0.1190 C.2   1 <1>   0.4200 
 17 C       -0.8920     5.4920     0.7270 C.2   1 <1>   0.2700 
 18 N       -2.4910     4.0570    -0.3530 N.am  1 <1>  -0.4420 
 19 C       -1.8900     6.4990     0.9070 C.2   1 <1>   0.6990 
 20 C       -3.4790     5.0170    -0.1650 C.2   1 <1>   0.6860 
 21 C       -2.8040     2.7560    -1.0140 C.3   1 <1>   0.0520 
 22 O       -1.6160     7.5570     1.4480 O.2   1 <1>  -0.5750 
 23 N       -3.1710     6.2290     0.4470 N.am  1 <1>  -0.4260 
 24 O       -4.6130     4.7880    -0.5350 O.2   1 <1>  -0.5750 
 25 C       -4.2340     7.2680     0.5910 C.3   1 <1>   0.1320 
 26 C       -4.2500     8.1770    -0.6420 C.3   1 <1>  -0.1680 
 27 C       -5.3330     9.2530    -0.5200 C.3   1 <1>  -0.2470 
 28 H        4.0150     2.8610     2.3890 H     1 <1>   0.1420 
 29 H        5.1740    -0.2360    -0.2600 H     1 <1>   0.1420 
 30 H        3.5620     0.5340    -1.9240 H     1 <1>   0.1420 
 31 H        3.5280     5.6430     0.8870 H     1 <1>   0.0720 
 32 H        3.1460     4.9810     2.4710 H     1 <1>   0.0720 
 33 H        0.0320     2.6490    -0.4260 H     1 <1>   0.4440 
 34 H        1.7090     7.0860     1.0560 H     1 <1>   0.0720 
 35 H        1.3370     6.4220     2.6490 H     1 <1>   0.0720 
 36 H        1.3730     2.9360    -3.5630 H     1 <1>   0.0720 
 37 H        1.8310     1.2890    -3.1520 H     1 <1>   0.0720 
 38 H        3.0710     2.5420    -3.3310 H     1 <1>   0.0720 
 39 H       -1.9670     2.4180    -1.5980 H     1 <1>   0.0720 
 40 H       -3.6500     2.8610    -1.6730 H     1 <1>   0.0720 
 41 H       -3.0420     2.0180    -0.2670 H     1 <1>   0.0720 
 42 H       -4.0550     7.8570     1.4750 H     1 <1>   0.0720 
 43 H       -5.1960     6.7970     0.7090 H     1 <1>   0.0720 
 44 H       -4.4460     7.5870    -1.5210 H     1 <1>   0.0720 
 45 H       -3.2940     8.6580    -0.7510 H     1 <1>   0.0720 
 46 H       -6.3060     8.8010    -0.4290 H     1 <1>   0.0720 
 47 H       -5.3300     9.8790    -1.3950 H     1 <1>   0.0720 
 48 H       -5.1550     9.8720     0.3430 H     1 <1>   0.0720 
@<TRIPOS>BOND
  1   1   2  1   
  2   2   3  ar  
  3   2   4  ar  
  4   3   5  ar  
  5   3  28  1   
  6   4   6  ar  
  7   4  29  1   
  8   5   7  1   
  9   5   8  ar  
 10   6   8  ar  
 11   6  30  1   
 12   7   9  ar  
 13   7  10  1   
 14   8  11  1   
 15   9  12  ar  
 16   9  13  ar  
 17  10  14  1   
 18  10  31  1   
 19  10  32  1   
 20  11  15  1   
 21  12  16  1   
 22  12  33  1   
 23  13  14  1   
 24  13  17  1   
 25  14  34  1   
 26  14  35  1   
 27  15  36  1   
 28  15  37  1   
 29  15  38  1   
 30  16  17  2   
 31  16  18  1   
 32  17  19  1   
 33  18  20  am  
 34  18  21  1   
 35  19  22  2   
 36  19  23  am  
 37  20  23  am  
 38  20  24  2   
 39  21  39  1   
 40  21  40  1   
 41  21  41  1   
 42  23  25  1   
 43  25  26  1   
 44  25  42  1   
 45  25  43  1   
 46  26  27  1   
 47  26  44  1   
 48  26  45  1   
 49  27  46  1   
 50  27  47  1   
 51  27  48  1   
@<TRIPOS>SUBSTRUCTURE
  1 ****  12 GROUP 4 **** **** 0

# MOE 2024.06 (io_trps.svl 2023.06)
