@<TRIPOS>MOLECULE
1-Cyclohexyl-3-(2-methoxy-phenyl)-1-[3-(4-methoxy-phenyl)-[1,2,4]oxadiazol-5-ylm
60 63 1 0 0 
SMALL
USER_CHARGES


@<TRIPOS>ATOM
  1 O        0.1860     0.1020     0.9080 O.2   1 <1>  -0.5700 
  2 C        0.2760     1.2910     0.6660 C.2   1 <1>   0.6900 
  3 N        1.3580     2.0030     1.1290 N.am  1 <1>  -0.6600 
  4 N       -0.6820     1.9280    -0.0600 N.am  1 <1>  -0.5470 
  5 C        1.5780     3.4790     1.0140 C.3   1 <1>   0.2200 
  6 C        2.4880     1.2700     1.7880 C.3   1 <1>   0.3200 
  7 C       -1.9000     1.5650    -0.6580 C.ar  1 <1>   0.1170 
  8 C        0.4720     4.2880     1.7130 C.3   1 <1>  -0.1600 
  9 C        1.7950     3.9120    -0.4470 C.3   1 <1>  -0.1600 
 10 C        3.7790     1.3970     0.9930 C.2   1 <1>   0.2980 
 11 C       -2.6330     2.5710    -1.2990 C.ar  1 <1>   0.0820 
 12 C       -2.4070     0.2710    -0.6450 C.ar  1 <1>  -0.1500 
 13 C        0.7490     5.7940     1.6060 C.3   1 <1>  -0.1600 
 14 C        2.0570     5.4220    -0.5350 C.3   1 <1>  -0.1600 
 15 O        3.8760     0.7690    -0.1490 O.3   1 <1>  -0.0190 
 16 N        4.7950     2.0820     1.3270 N.2   1 <1>  -0.5650 
 17 O       -2.1000     3.8330    -1.2920 O.3   1 <1>  -0.3630 
 18 C       -3.8480     2.2690    -1.9070 C.ar  1 <1>  -0.1500 
 19 C       -3.6150    -0.0240    -1.2510 C.ar  1 <1>  -0.1500 
 20 C        0.9350     6.2210     0.1430 C.3   1 <1>  -0.1600 
 21 N        5.0550     1.0860    -0.5840 N.2   1 <1>  -0.4100 
 22 C        5.6020     1.8630     0.2830 C.2   1 <1>   0.4620 
 23 C       -2.7520     4.9050    -1.9360 C.3   1 <1>   0.0400 
 24 C       -4.3350     0.9730    -1.8820 C.ar  1 <1>  -0.1500 
 25 C        6.9250     2.4560     0.1760 C.ar  1 <1>   0.0540 
 26 C        7.7450     2.2020    -0.9260 C.ar  1 <1>  -0.1500 
 27 C        7.4320     3.3050     1.1620 C.ar  1 <1>  -0.1500 
 28 C        9.0040     2.7620    -1.0430 C.ar  1 <1>  -0.1500 
 29 C        8.6890     3.8700     1.0530 C.ar  1 <1>  -0.1500 
 30 C        9.4860     3.6060    -0.0480 C.ar  1 <1>   0.0820 
 31 O       10.7040     4.1980    -0.0800 O.3   1 <1>  -0.3620 
 32 C       11.5950     3.9880    -1.1530 C.3   1 <1>   0.0400 
 33 H       -0.4800     2.9160    -0.1920 H     1 <1>   0.3700 
 34 H        2.4900     3.7200     1.5360 H     1 <1>   0.0800 
 35 H        2.2670     0.2250     1.9100 H     1 <1>   0.0800 
 36 H        2.6410     1.6820     2.7690 H     1 <1>   0.0800 
 37 H        0.4290     4.0080     2.7500 H     1 <1>   0.0800 
 38 H       -0.4890     4.0970     1.2750 H     1 <1>   0.0800 
 39 H        0.9380     3.6850    -1.0520 H     1 <1>   0.0800 
 40 H        2.6400     3.3850    -0.8540 H     1 <1>   0.0800 
 41 H       -1.8620    -0.5180    -0.1620 H     1 <1>   0.1500 
 42 H        1.6380     6.0370     2.1630 H     1 <1>   0.0800 
 43 H       -0.0700     6.3420     2.0400 H     1 <1>   0.0800 
 44 H        2.1360     5.7130    -1.5680 H     1 <1>   0.0800 
 45 H        2.9960     5.6490    -0.0580 H     1 <1>   0.0800 
 46 H       -4.4310     3.0200    -2.4040 H     1 <1>   0.1500 
 47 H       -3.9920    -1.0320    -1.2310 H     1 <1>   0.1500 
 48 H        1.1680     7.2710     0.1020 H     1 <1>   0.0800 
 49 H        0.0140     6.0670    -0.3940 H     1 <1>   0.0800 
 50 H       -2.1490     5.7870    -1.8120 H     1 <1>   0.0800 
 51 H       -3.7150     5.0550    -1.4810 H     1 <1>   0.0800 
 52 H       -2.8500     4.6760    -2.9830 H     1 <1>   0.0800 
 53 H       -5.2750     0.7410    -2.3520 H     1 <1>   0.1500 
 54 H        7.3890     1.5520    -1.7070 H     1 <1>   0.1500 
 55 H        6.8350     3.5270     2.0280 H     1 <1>   0.1500 
 56 H        9.5930     2.5330    -1.9110 H     1 <1>   0.1500 
 57 H        9.0630     4.5220     1.8220 H     1 <1>   0.1500 
 58 H       12.4900     4.5520    -0.9580 H     1 <1>   0.0800 
 59 H       11.1360     4.3330    -2.0620 H     1 <1>   0.0800 
 60 H       11.8300     2.9390    -1.2110 H     1 <1>   0.0800 
@<TRIPOS>BOND
  1   1   2  2   
  2   2   3  am  
  3   2   4  am  
  4   3   5  1   
  5   3   6  1   
  6   4   7  1   
  7   4  33  1   
  8   5   8  1   
  9   5   9  1   
 10   5  34  1   
 11   6  10  1   
 12   6  35  1   
 13   6  36  1   
 14   7  11  ar  
 15   7  12  ar  
 16   8  13  1   
 17   8  37  1   
 18   8  38  1   
 19   9  14  1   
 20   9  39  1   
 21   9  40  1   
 22  10  15  1   
 23  10  16  2   
 24  11  17  1   
 25  11  18  ar  
 26  12  19  ar  
 27  12  41  1   
 28  13  20  1   
 29  13  42  1   
 30  13  43  1   
 31  14  20  1   
 32  14  44  1   
 33  14  45  1   
 34  15  21  1   
 35  16  22  1   
 36  17  23  1   
 37  18  24  ar  
 38  18  46  1   
 39  19  24  ar  
 40  19  47  1   
 41  20  48  1   
 42  20  49  1   
 43  21  22  2   
 44  22  25  1   
 45  23  50  1   
 46  23  51  1   
 47  23  52  1   
 48  24  53  1   
 49  25  26  ar  
 50  25  27  ar  
 51  26  28  ar  
 52  26  54  1   
 53  27  29  ar  
 54  27  55  1   
 55  28  30  ar  
 56  28  56  1   
 57  29  30  ar  
 58  29  57  1   
 59  30  31  1   
 60  31  32  1   
 61  32  58  1   
 62  32  59  1   
 63  32  60  1   
@<TRIPOS>SUBSTRUCTURE
  1 ****   9 GROUP 4 **** **** 0

# MOE 2024.06 (io_trps.svl 2023.06)
