@<TRIPOS>MOLECULE
1-[2-(Benzooxazol-2-ylsulfanyl)-acetyl]-piperidine-4-carboxylic acid methyl este
41 43 1 0 0 
SMALL
USER_CHARGES


@<TRIPOS>ATOM
  1 S        0.3330    -0.2170     0.2700 S.3   1 <1>  -0.2860 
  2 C       -1.4260    -0.4040     0.0720 C.2   1 <1>   0.5340 
  3 C        1.0020    -0.9420    -1.3030 C.3   1 <1>   0.1310 
  4 O       -2.1940     0.0440     1.0460 O.3   1 <1>  -0.2800 
  5 N       -1.9980    -0.9450    -0.9340 N.2   1 <1>  -0.5650 
  6 C        2.4940    -1.2130    -1.1770 C.2   1 <1>   0.5690 
  7 C       -3.4160    -0.2300     0.6330 C.ar  1 <1>   0.1400 
  8 C       -3.3130    -0.8440    -0.5950 C.ar  1 <1>   0.2270 
  9 O        3.2320    -0.4920    -1.8070 O.2   1 <1>  -0.5700 
 10 N        2.9770    -2.2440    -0.4020 N.am  1 <1>  -0.6600 
 11 C       -4.6390     0.0110     1.2420 C.ar  1 <1>  -0.1500 
 12 C       -4.4640    -1.2430    -1.2660 C.ar  1 <1>  -0.1500 
 13 C        2.1400    -3.1490     0.4360 C.3   1 <1>   0.1400 
 14 C        4.4410    -2.5060    -0.3030 C.3   1 <1>   0.1400 
 15 C       -5.7820    -0.3880     0.5730 C.ar  1 <1>  -0.1500 
 16 C       -5.6930    -1.0120    -0.6750 C.ar  1 <1>  -0.1500 
 17 C        2.4090    -4.6060     0.0480 C.3   1 <1>  -0.1600 
 18 C        4.7310    -3.9560    -0.6990 C.3   1 <1>  -0.1600 
 19 C        3.9070    -4.9520     0.1430 C.3   1 <1>  -0.0190 
 20 C        4.1580    -6.4090    -0.2440 C.2   1 <1>   0.6590 
 21 O        4.6430    -6.7290    -1.3000 O.2   1 <1>  -0.5700 
 22 O        3.8020    -7.3090     0.6650 O.3   1 <1>  -0.4300 
 23 C        3.9730    -8.6940     0.4430 C.3   1 <1>   0.0400 
 24 H        0.8140    -0.2260    -2.0820 H     1 <1>   0.0800 
 25 H        0.4660    -1.8480    -1.5090 H     1 <1>   0.0800 
 26 H       -4.6780     0.4930     2.2030 H     1 <1>   0.1500 
 27 H       -4.3750    -1.7210    -2.2240 H     1 <1>   0.1500 
 28 H        1.0930    -2.9420     0.3180 H     1 <1>   0.0800 
 29 H        2.3910    -2.9940     1.4720 H     1 <1>   0.0800 
 30 H        4.7620    -2.3260     0.7080 H     1 <1>   0.0800 
 31 H        4.9940    -1.8440    -0.9480 H     1 <1>   0.0800 
 32 H       -6.7500    -0.2190     1.0120 H     1 <1>   0.1500 
 33 H       -6.5970    -1.3140    -1.1780 H     1 <1>   0.1500 
 34 H        2.0620    -4.7700    -0.9570 H     1 <1>   0.0800 
 35 H        1.8460    -5.2510     0.6990 H     1 <1>   0.0800 
 36 H        5.7800    -4.1550    -0.5710 H     1 <1>   0.0800 
 37 H        4.5020    -4.0800    -1.7430 H     1 <1>   0.0800 
 38 H        4.2130    -4.8470     1.1690 H     1 <1>   0.0800 
 39 H        3.6180    -9.2260     1.3070 H     1 <1>   0.0800 
 40 H        5.0190    -8.8950     0.2880 H     1 <1>   0.0800 
 41 H        3.4080    -8.9790    -0.4280 H     1 <1>   0.0800 
@<TRIPOS>BOND
  1   1   2  1   
  2   1   3  1   
  3   2   4  1   
  4   2   5  2   
  5   3   6  1   
  6   3  24  1   
  7   3  25  1   
  8   4   7  1   
  9   5   8  1   
 10   6   9  2   
 11   6  10  am  
 12   7   8  ar  
 13   7  11  ar  
 14   8  12  ar  
 15  10  13  1   
 16  10  14  1   
 17  11  15  ar  
 18  11  26  1   
 19  12  16  ar  
 20  12  27  1   
 21  13  17  1   
 22  13  28  1   
 23  13  29  1   
 24  14  18  1   
 25  14  30  1   
 26  14  31  1   
 27  15  16  ar  
 28  15  32  1   
 29  16  33  1   
 30  17  19  1   
 31  17  34  1   
 32  17  35  1   
 33  18  19  1   
 34  18  36  1   
 35  18  37  1   
 36  19  20  1   
 37  19  38  1   
 38  20  21  2   
 39  20  22  1   
 40  22  23  1   
 41  23  39  1   
 42  23  40  1   
 43  23  41  1   
@<TRIPOS>SUBSTRUCTURE
  1 ****  13 GROUP 4 **** **** 0

# MOE 2024.06 (io_trps.svl 2023.06)
