@<TRIPOS>MOLECULE
1-(Furan-2-carbonyl)-piperidine-4-carboxylic acid (4-bromo-2-fluoro-phenyl)-amid
40 42 1 0 0 
SMALL
USER_CHARGES


@<TRIPOS>ATOM
  1 BR       0.6240    -0.7360    -0.6180 Br    1 <1>  -0.1110 
  2 C       -0.8970    -1.8760    -0.3110 C.ar  1 <1>   0.1110 
  3 C       -0.7670    -2.9400     0.5590 C.ar  1 <1>  -0.1500 
  4 C       -2.0830    -1.6010    -0.9700 C.ar  1 <1>  -0.1500 
  5 C       -1.8810    -3.7320     0.7500 C.ar  1 <1>   0.1900 
  6 C       -3.1820    -2.4180    -0.7530 C.ar  1 <1>  -0.1500 
  7 F       -1.7760    -4.7470     1.5750 F     1 <1>  -0.1900 
  8 C       -3.1060    -3.5100     0.1140 C.ar  1 <1>   0.1170 
  9 N       -4.1870    -4.3790     0.3800 N.am  1 <1>  -0.5470 
 10 C       -5.4450    -4.4810    -0.1470 C.2   1 <1>   0.5690 
 11 O       -5.8590    -3.7600    -1.0200 O.2   1 <1>  -0.5700 
 12 C       -6.3480    -5.5820     0.4150 C.3   1 <1>  -0.0190 
 13 C       -6.0660    -6.9320    -0.2700 C.3   1 <1>  -0.1600 
 14 C       -7.8490    -5.2470     0.2960 C.3   1 <1>  -0.1600 
 15 C       -6.9500    -8.0450     0.2970 C.3   1 <1>   0.1400 
 16 C       -8.7340    -6.3670     0.8500 C.3   1 <1>   0.1400 
 17 N       -8.3850    -7.6570     0.1920 N.am  1 <1>  -0.6600 
 18 C       -9.2680    -8.3640    -0.6080 C.2   1 <1>   0.7150 
 19 O       -8.8120    -9.1640    -1.4080 O.2   1 <1>  -0.5700 
 20 C      -10.7020    -8.1950    -0.4950 C.2   1 <1>   0.0550 
 21 O      -11.4740    -8.1200    -1.5760 O.3   1 <1>  -0.2800 
 22 C      -11.5020    -8.0900     0.6050 C.2   1 <1>  -0.1500 
 23 C      -12.7230    -7.9700    -1.2010 C.2   1 <1>  -0.0100 
 24 C      -12.8110    -7.9430     0.1450 C.2   1 <1>  -0.1500 
 25 H        0.1600    -3.1410     1.0640 H     1 <1>   0.1500 
 26 H       -2.1450    -0.7620    -1.6400 H     1 <1>   0.1500 
 27 H       -4.0980    -2.1930    -1.2690 H     1 <1>   0.1500 
 28 H       -3.9590    -5.0830     1.0820 H     1 <1>   0.3700 
 29 H       -6.1230    -5.6820     1.4620 H     1 <1>   0.0800 
 30 H       -5.0330    -7.2030    -0.1400 H     1 <1>   0.0800 
 31 H       -6.2500    -6.8480    -1.3280 H     1 <1>   0.0800 
 32 H       -8.1060    -5.0880    -0.7380 H     1 <1>   0.0800 
 33 H       -8.0590    -4.3330     0.8240 H     1 <1>   0.0800 
 34 H       -6.7100    -8.2140     1.3330 H     1 <1>   0.0800 
 35 H       -6.7600    -8.9620    -0.2360 H     1 <1>   0.0800 
 36 H       -9.7630    -6.1090     0.6730 H     1 <1>   0.0800 
 37 H       -8.5870    -6.4630     1.9120 H     1 <1>   0.0800 
 38 H      -11.2050    -8.1210     1.6380 H     1 <1>   0.1500 
 39 H      -13.4880    -7.8930    -1.9550 H     1 <1>   0.1500 
 40 H      -13.6890    -7.8350     0.7580 H     1 <1>   0.1500 
@<TRIPOS>BOND
  1   1   2  1   
  2   2   3  ar  
  3   2   4  ar  
  4   3   5  ar  
  5   3  25  1   
  6   4   6  ar  
  7   4  26  1   
  8   5   7  1   
  9   5   8  ar  
 10   6   8  ar  
 11   6  27  1   
 12   8   9  1   
 13   9  10  am  
 14   9  28  1   
 15  10  11  2   
 16  10  12  1   
 17  12  13  1   
 18  12  14  1   
 19  12  29  1   
 20  13  15  1   
 21  13  30  1   
 22  13  31  1   
 23  14  16  1   
 24  14  32  1   
 25  14  33  1   
 26  15  17  1   
 27  15  34  1   
 28  15  35  1   
 29  16  17  1   
 30  16  36  1   
 31  16  37  1   
 32  17  18  am  
 33  18  19  2   
 34  18  20  1   
 35  20  21  1   
 36  20  22  2   
 37  21  23  1   
 38  22  24  1   
 39  22  38  1   
 40  23  24  2   
 41  23  39  1   
 42  24  40  1   
@<TRIPOS>SUBSTRUCTURE
  1 ****  12 GROUP 4 **** **** 0

# MOE 2024.06 (io_trps.svl 2023.06)
