@<TRIPOS>MOLECULE
4-(2,4-Dimethoxy-phenyl)-2,7-dimethyl-5-oxo-1,4,5,6,7,8-hexahydro-quinoline-3-ca
62 65 1 0 0 
SMALL
USER_CHARGES


@<TRIPOS>ATOM
  1 O        0.5840    -0.6490    -1.8090 O.2   1 <1>  -0.5700 
  2 C        0.6670    -1.4460    -0.9060 C.2   1 <1>   0.4950 
  3 C        1.8850    -2.0210    -0.4390 C.2   1 <1>  -0.1240 
  4 C       -0.6410    -1.9100    -0.2850 C.3   1 <1>  -0.0990 
  5 C        1.9230    -3.0390     0.4590 C.2   1 <1>  -0.0380 
  6 C        3.1920    -1.4710    -1.0290 C.3   1 <1>   0.3400 
  7 C       -0.4500    -2.5090     1.1200 C.3   1 <1>  -0.0800 
  8 N        3.0960    -3.6610     0.8100 N.pl3 1 <1>  -0.6000 
  9 C        0.6580    -3.5750     1.1130 C.3   1 <1>  -0.0220 
 10 C        4.4220    -2.2870    -0.6240 C.2   1 <1>  -0.1240 
 11 C        3.3970     0.0100    -0.6580 C.ar  1 <1>  -0.1440 
 12 C       -1.7680    -3.0850     1.6530 C.3   1 <1>  -0.2400 
 13 C        4.3100    -3.3160     0.2570 C.2   1 <1>  -0.0380 
 14 C        5.6240    -1.8070    -1.2180 C.2   1 <1>   0.6160 
 15 C        3.8440     0.4300     0.5970 C.ar  1 <1>   0.0830 
 16 C        3.1450     0.9820    -1.6190 C.ar  1 <1>  -0.1500 
 17 C        5.4700    -4.1760     0.7270 C.3   1 <1>  -0.1020 
 18 O        5.7850    -1.8520    -2.4230 O.2   1 <1>  -0.5700 
 19 N        6.5730    -1.2690    -0.3940 N.am  1 <1>  -0.5470 
 20 O        4.1220    -0.4640     1.5690 O.3   1 <1>  -0.3630 
 21 C        4.0480     1.7730     0.8720 C.ar  1 <1>  -0.1500 
 22 C        3.3350     2.3240    -1.3430 C.ar  1 <1>  -0.1500 
 23 C        7.8410    -0.7710    -0.5830 C.ar  1 <1>   0.4270 
 24 C        3.1930    -0.5490     2.6230 C.3   1 <1>   0.0400 
 25 C        3.7910     2.7300    -0.1010 C.ar  1 <1>   0.0830 
 26 N        8.3620    -0.2650     0.5260 N.ar  1 <1>  -0.6200 
 27 C        8.5220    -0.7990    -1.7990 C.ar  1 <1>  -0.1500 
 28 O        3.9670     4.0630     0.0840 O.3   1 <1>  -0.3630 
 29 C        9.5820     0.2340     0.4320 C.ar  1 <1>   0.1670 
 30 C        9.7910    -0.2780    -1.8890 C.ar  1 <1>  -0.1500 
 31 C        4.5770     4.5580     1.2550 C.3   1 <1>   0.0400 
 32 C       10.3280     0.2520    -0.7350 C.ar  1 <1>  -0.1500 
 33 C       10.1550     0.8120     1.7080 C.3   1 <1>  -0.0970 
 34 H       -1.0760    -2.6410    -0.9420 H     1 <1>   0.0800 
 35 H       -1.3120    -1.0720    -0.2320 H     1 <1>   0.0800 
 36 H        3.1100    -1.5490    -2.0990 H     1 <1>   0.0800 
 37 H       -0.1390    -1.7130     1.7770 H     1 <1>   0.0800 
 38 H        3.0720    -4.4400     1.4780 H     1 <1>   0.4000 
 39 H        0.8700    -3.8610     2.1280 H     1 <1>   0.0800 
 40 H        0.3350    -4.4500     0.5770 H     1 <1>   0.0800 
 41 H       -2.1190    -3.8850     1.0240 H     1 <1>   0.0800 
 42 H       -2.5240    -2.3200     1.6850 H     1 <1>   0.0800 
 43 H       -1.6350    -3.4660     2.6510 H     1 <1>   0.0800 
 44 H        2.7910     0.6980    -2.5950 H     1 <1>   0.1500 
 45 H        5.2470    -5.2140     0.5590 H     1 <1>   0.0800 
 46 H        5.6390    -4.0190     1.7760 H     1 <1>   0.0800 
 47 H        6.3770    -3.9460     0.1990 H     1 <1>   0.0800 
 48 H        6.2380    -1.0880     0.5520 H     1 <1>   0.3700 
 49 H        4.4110     2.0450     1.8420 H     1 <1>   0.1500 
 50 H        3.1330     3.0650    -2.0950 H     1 <1>   0.1500 
 51 H        3.4680    -1.3800     3.2460 H     1 <1>   0.0800 
 52 H        2.2130    -0.7080     2.2090 H     1 <1>   0.0800 
 53 H        3.2180     0.3650     3.1880 H     1 <1>   0.0800 
 54 H        8.0620    -1.2230    -2.6700 H     1 <1>   0.1500 
 55 H       10.3380    -0.2850    -2.8160 H     1 <1>   0.1500 
 56 H        4.6690     5.6250     1.1570 H     1 <1>   0.0800 
 57 H        5.5510     4.1130     1.3550 H     1 <1>   0.0800 
 58 H        3.9550     4.3210     2.0990 H     1 <1>   0.0800 
 59 H       11.3170     0.6730    -0.7480 H     1 <1>   0.1500 
 60 H       10.2010     0.0440     2.4590 H     1 <1>   0.0800 
 61 H        9.5180     1.6020     2.0600 H     1 <1>   0.0800 
 62 H       11.1420     1.2040     1.5500 H     1 <1>   0.0800 
@<TRIPOS>BOND
  1   1   2  2   
  2   2   3  1   
  3   2   4  1   
  4   3   5  2   
  5   3   6  1   
  6   4   7  1   
  7   4  34  1   
  8   4  35  1   
  9   5   8  1   
 10   5   9  1   
 11   6  10  1   
 12   6  11  1   
 13   6  36  1   
 14   7   9  1   
 15   7  12  1   
 16   7  37  1   
 17   8  13  1   
 18   8  38  1   
 19   9  39  1   
 20   9  40  1   
 21  10  13  2   
 22  10  14  1   
 23  11  15  ar  
 24  11  16  ar  
 25  12  41  1   
 26  12  42  1   
 27  12  43  1   
 28  13  17  1   
 29  14  18  2   
 30  14  19  am  
 31  15  20  1   
 32  15  21  ar  
 33  16  22  ar  
 34  16  44  1   
 35  17  45  1   
 36  17  46  1   
 37  17  47  1   
 38  19  23  1   
 39  19  48  1   
 40  20  24  1   
 41  21  25  ar  
 42  21  49  1   
 43  22  25  ar  
 44  22  50  1   
 45  23  26  ar  
 46  23  27  ar  
 47  24  51  1   
 48  24  52  1   
 49  24  53  1   
 50  25  28  1   
 51  26  29  ar  
 52  27  30  ar  
 53  27  54  1   
 54  28  31  1   
 55  29  32  ar  
 56  29  33  1   
 57  30  32  ar  
 58  30  55  1   
 59  31  56  1   
 60  31  57  1   
 61  31  58  1   
 62  32  59  1   
 63  33  60  1   
 64  33  61  1   
 65  33  62  1   
@<TRIPOS>SUBSTRUCTURE
  1 ****  11 GROUP 4 **** **** 0

# MOE 2024.06 (io_trps.svl 2023.06)
