@<TRIPOS>MOLECULE
Cyclopentanecarboxylic acid [3,5-dimethyl-4-(2-morpholin-4-yl-2-oxo-ethoxy)-phen
54 56 1 0 0 
SMALL
USER_CHARGES


@<TRIPOS>ATOM
  1 O       -0.6220     0.3100     0.0190 O.2   1 <1>  -0.5700 
  2 C        0.1170    -0.6420     0.0800 C.2   1 <1>   0.5690 
  3 N       -0.3150    -1.9410     0.0710 N.am  1 <1>  -0.5470 
  4 C        1.6200    -0.3910     0.1850 C.3   1 <1>  -0.0190 
  5 C       -1.6040    -2.4920    -0.0310 C.ar  1 <1>   0.1170 
  6 C        2.4400    -0.9840    -0.9670 C.3   1 <1>  -0.1600 
  7 C        2.2700    -0.9340     1.4720 C.3   1 <1>  -0.1600 
  8 C       -1.8130    -3.7840     0.4350 C.ar  1 <1>  -0.1500 
  9 C       -2.6750    -1.8110    -0.6010 C.ar  1 <1>  -0.1500 
 10 C        3.8430    -1.1300    -0.3910 C.3   1 <1>  -0.1600 
 11 C        3.6190    -1.5380     1.0640 C.3   1 <1>  -0.1600 
 12 C       -3.0570    -4.3880     0.3540 C.ar  1 <1>  -0.1430 
 13 C       -3.9280    -2.3910    -0.6960 C.ar  1 <1>  -0.1430 
 14 C       -4.1180    -3.6790    -0.2000 C.ar  1 <1>   0.0830 
 15 C       -3.2410    -5.8110     0.8620 C.3   1 <1>  -0.0970 
 16 C       -5.0640    -1.6110    -1.3450 C.3   1 <1>  -0.0970 
 17 O       -5.3430    -4.2520    -0.2700 O.3   1 <1>  -0.3630 
 18 C       -6.2300    -3.9300     0.7920 C.3   1 <1>   0.1810 
 19 C       -7.6840    -4.2200     0.4230 C.2   1 <1>   0.5690 
 20 O       -8.4620    -3.2960     0.4970 O.2   1 <1>  -0.5700 
 21 N       -8.1050    -5.4760     0.0520 N.am  1 <1>  -0.6600 
 22 C       -7.2240    -6.6740    -0.0890 C.3   1 <1>   0.1400 
 23 C       -9.5180    -5.7370    -0.3570 C.3   1 <1>   0.1400 
 24 C       -7.8850    -7.9180     0.5300 C.3   1 <1>   0.1200 
 25 C      -10.0430    -7.0320     0.2830 C.3   1 <1>   0.1200 
 26 O       -9.1770    -8.1000     0.0240 O.3   1 <1>  -0.5600 
 27 H        0.4290    -2.6240     0.1900 H     1 <1>   0.3700 
 28 H        1.7740     0.6750     0.1710 H     1 <1>   0.0800 
 29 H        2.4250    -0.3470    -1.8350 H     1 <1>   0.0800 
 30 H        2.0680    -1.9560    -1.2410 H     1 <1>   0.0800 
 31 H        1.6600    -1.6840     1.9440 H     1 <1>   0.0800 
 32 H        2.4120    -0.1270     2.1710 H     1 <1>   0.0800 
 33 H       -0.9900    -4.3210     0.8680 H     1 <1>   0.1500 
 34 H       -2.5250    -0.8180    -0.9790 H     1 <1>   0.1500 
 35 H        4.3440    -0.1760    -0.4220 H     1 <1>   0.0800 
 36 H        4.4320    -1.8530    -0.9300 H     1 <1>   0.0800 
 37 H        3.5650    -2.6110     1.1290 H     1 <1>   0.0800 
 38 H        4.4190    -1.1930     1.6970 H     1 <1>   0.0800 
 39 H       -2.2940    -6.2660     1.0880 H     1 <1>   0.0800 
 40 H       -3.7310    -6.4050     0.1120 H     1 <1>   0.0800 
 41 H       -3.8410    -5.8060     1.7540 H     1 <1>   0.0800 
 42 H       -4.6770    -0.8290    -1.9740 H     1 <1>   0.0800 
 43 H       -5.6860    -1.1660    -0.5900 H     1 <1>   0.0800 
 44 H       -5.6660    -2.2620    -1.9530 H     1 <1>   0.0800 
 45 H       -6.1270    -2.8850     1.0210 H     1 <1>   0.0800 
 46 H       -5.9480    -4.5040     1.6530 H     1 <1>   0.0800 
 47 H       -6.2760    -6.5140     0.3900 H     1 <1>   0.0800 
 48 H       -7.0400    -6.8540    -1.1340 H     1 <1>   0.0800 
 49 H       -9.5630    -5.8290    -1.4280 H     1 <1>   0.0800 
 50 H      -10.1530    -4.9180    -0.0690 H     1 <1>   0.0800 
 51 H       -7.9460    -7.8220     1.6000 H     1 <1>   0.0800 
 52 H       -7.3140    -8.7980     0.2930 H     1 <1>   0.0800 
 53 H      -11.0060    -7.2830    -0.1250 H     1 <1>   0.0800 
 54 H      -10.1390    -6.9140     1.3490 H     1 <1>   0.0800 
@<TRIPOS>BOND
  1   1   2  2   
  2   2   3  am  
  3   2   4  1   
  4   3   5  1   
  5   3  27  1   
  6   4   6  1   
  7   4   7  1   
  8   4  28  1   
  9   5   8  ar  
 10   5   9  ar  
 11   6  10  1   
 12   6  29  1   
 13   6  30  1   
 14   7  11  1   
 15   7  31  1   
 16   7  32  1   
 17   8  12  ar  
 18   8  33  1   
 19   9  13  ar  
 20   9  34  1   
 21  10  11  1   
 22  10  35  1   
 23  10  36  1   
 24  11  37  1   
 25  11  38  1   
 26  12  14  ar  
 27  12  15  1   
 28  13  14  ar  
 29  13  16  1   
 30  14  17  1   
 31  15  39  1   
 32  15  40  1   
 33  15  41  1   
 34  16  42  1   
 35  16  43  1   
 36  16  44  1   
 37  17  18  1   
 38  18  19  1   
 39  18  45  1   
 40  18  46  1   
 41  19  20  2   
 42  19  21  am  
 43  21  22  1   
 44  21  23  1   
 45  22  24  1   
 46  22  47  1   
 47  22  48  1   
 48  23  25  1   
 49  23  49  1   
 50  23  50  1   
 51  24  26  1   
 52  24  51  1   
 53  24  52  1   
 54  25  26  1   
 55  25  53  1   
 56  25  54  1   
@<TRIPOS>SUBSTRUCTURE
  1 ****  14 GROUP 4 **** **** 0

# MOE 2024.06 (io_trps.svl 2023.06)
