@<TRIPOS>MOLECULE
8-Cyclopentyl-1,6,7-trimethyl-3-(2-methyl-allyl)-1H,8H-imidazo[2,1-f]purine-2,4-
52 55 1 0 0 
SMALL
USER_CHARGES


@<TRIPOS>ATOM
  1 O        0.5660     0.4060    -1.9980 O.2   1 <1>  -0.5740 
  2 C        1.6050     0.7020    -1.4420 C.2   1 <1>   0.6870 
  3 N        1.8990     2.0280    -1.1520 N.am  1 <1>  -0.4250 
  4 N        2.5200    -0.2940    -1.1260 N.am  1 <1>  -0.4410 
  5 C        3.1470     2.4090    -0.6870 C.2   1 <1>   0.7000 
  6 C        0.8110     3.0360    -1.2440 C.3   1 <1>   0.2720 
  7 C        3.7460     0.0860    -0.6190 C.2   1 <1>   0.4210 
  8 C        2.1890    -1.7310    -1.3660 C.3   1 <1>   0.0530 
  9 O        3.4280     3.5870    -0.5380 O.2   1 <1>  -0.5740 
 10 C        4.0900     1.3780    -0.3980 C.2   1 <1>   0.2710 
 11 C        0.0070     3.0320     0.0520 C.2   1 <1>  -0.2830 
 12 N        4.7900    -0.7220    -0.2810 N.pl3 1 <1>  -0.7030 
 13 N        5.4060     1.3520     0.0980 N.pl3 1 <1>  -0.6330 
 14 C       -1.1810     2.4290     0.1580 C.2   1 <1>  -0.3060 
 15 C        0.6450     3.7780     1.2150 C.3   1 <1>  -0.1090 
 16 C        5.7730     0.0780     0.1450 C.cat 1 <1>   1.0690 
 17 C        6.4810     2.0940     0.5370 C.2   1 <1>   0.2340 
 18 N        7.0240    -0.0670     0.5980 N.pl3 1 <1>  -0.5720 
 19 C        7.4750     1.2250     0.8420 C.2   1 <1>   0.1580 
 20 C        6.4000     3.6060     0.6020 C.3   1 <1>  -0.1090 
 21 C        7.8180    -1.3150     0.7670 C.3   1 <1>   0.2410 
 22 C        8.8760     1.5030     1.3610 C.3   1 <1>  -0.1090 
 23 C        8.3700    -1.7660    -0.5820 C.3   1 <1>  -0.1670 
 24 C        6.9630    -2.4930     1.2510 C.3   1 <1>  -0.1670 
 25 C        7.3150    -2.6970    -1.1780 C.3   1 <1>  -0.1670 
 26 C        6.6410    -3.3630     0.0250 C.3   1 <1>  -0.1670 
 27 H        0.1640     2.7940    -2.0700 H     1 <1>   0.0730 
 28 H        1.2080     4.0190    -1.4330 H     1 <1>   0.0730 
 29 H        1.1230    -1.8810    -1.3280 H     1 <1>   0.0730 
 30 H        2.6400    -2.3540    -0.6140 H     1 <1>   0.0730 
 31 H        2.5430    -2.0260    -2.3390 H     1 <1>   0.0730 
 32 H        4.8870    -1.7320    -0.3550 H     1 <1>   0.4450 
 33 H       -1.7770     2.4150     1.0540 H     1 <1>   0.1430 
 34 H       -1.6600     1.8930    -0.6450 H     1 <1>   0.1430 
 35 H        0.8620     4.7930     0.9320 H     1 <1>   0.0730 
 36 H        1.5570     3.3010     1.5220 H     1 <1>   0.0730 
 37 H       -0.0210     3.8000     2.0590 H     1 <1>   0.0730 
 38 H        5.5990     3.9040     1.2550 H     1 <1>   0.0730 
 39 H        6.2100     4.0070    -0.3770 H     1 <1>   0.0730 
 40 H        7.3160     4.0280     0.9720 H     1 <1>   0.0730 
 41 H        8.6210    -1.1390     1.4620 H     1 <1>   0.0730 
 42 H        9.6090     1.0980     0.6850 H     1 <1>   0.0730 
 43 H        9.0090     1.0560     2.3290 H     1 <1>   0.0730 
 44 H        9.0510     2.5600     1.4510 H     1 <1>   0.0730 
 45 H        9.2640    -2.3400    -0.4060 H     1 <1>   0.0730 
 46 H        8.6170    -0.9460    -1.2330 H     1 <1>   0.0730 
 47 H        6.0850    -2.1820     1.7880 H     1 <1>   0.0730 
 48 H        7.5600    -3.0820     1.9260 H     1 <1>   0.0730 
 49 H        7.7640    -3.4280    -1.8310 H     1 <1>   0.0730 
 50 H        6.6030    -2.1290    -1.7490 H     1 <1>   0.0730 
 51 H        5.5840    -3.4890    -0.1260 H     1 <1>   0.0730 
 52 H        7.0700    -4.3410     0.1700 H     1 <1>   0.0730 
@<TRIPOS>BOND
  1   1   2  2   
  2   2   3  am  
  3   2   4  am  
  4   3   5  am  
  5   3   6  1   
  6   4   7  1   
  7   4   8  1   
  8   5   9  2   
  9   5  10  1   
 10   6  11  1   
 11   6  27  1   
 12   6  28  1   
 13   7  10  2   
 14   7  12  1   
 15   8  29  1   
 16   8  30  1   
 17   8  31  1   
 18  10  13  1   
 19  11  14  2   
 20  11  15  1   
 21  12  16  ar  
 22  12  32  1   
 23  13  16  ar  
 24  13  17  1   
 25  14  33  1   
 26  14  34  1   
 27  15  35  1   
 28  15  36  1   
 29  15  37  1   
 30  16  18  ar  
 31  17  19  2   
 32  17  20  1   
 33  18  19  1   
 34  18  21  1   
 35  19  22  1   
 36  20  38  1   
 37  20  39  1   
 38  20  40  1   
 39  21  23  1   
 40  21  24  1   
 41  21  41  1   
 42  22  42  1   
 43  22  43  1   
 44  22  44  1   
 45  23  25  1   
 46  23  45  1   
 47  23  46  1   
 48  24  26  1   
 49  24  47  1   
 50  24  48  1   
 51  25  26  1   
 52  25  49  1   
 53  25  50  1   
 54  26  51  1   
 55  26  52  1   
@<TRIPOS>SUBSTRUCTURE
  1 ****  10 GROUP 4 **** **** 0

# MOE 2024.06 (io_trps.svl 2023.06)
