@<TRIPOS>MOLECULE
N-[3-(4-Methoxy-phenyl)-[1,2,4]oxadiazol-5-ylmethyl]-N-methyl-acetamide
34 35 1 0 0 
SMALL
USER_CHARGES


@<TRIPOS>ATOM
  1 O        0.3250     1.2980    -1.5260 O.2   1 <1>  -0.5700 
  2 C        0.6040     2.0560    -0.6310 C.2   1 <1>   0.5690 
  3 N        1.7770     1.9520     0.0660 N.am  1 <1>  -0.6600 
  4 C       -0.3930     3.1410    -0.2990 C.3   1 <1>  -0.1790 
  5 C        2.8060     0.9410    -0.3430 C.3   1 <1>   0.3200 
  6 C        2.1700     2.8230     1.2130 C.3   1 <1>   0.0600 
  7 C        4.1290     1.5950    -0.7160 C.2   1 <1>   0.2980 
  8 O        4.1860     2.3140    -1.8060 O.3   1 <1>  -0.0190 
  9 N        5.2120     1.5210    -0.0540 N.2   1 <1>  -0.5650 
 10 N        5.4110     2.7370    -1.8410 N.2   1 <1>  -0.4100 
 11 C        6.0210     2.2720    -0.8090 C.2   1 <1>   0.4620 
 12 C        7.4140     2.5120    -0.4680 C.ar  1 <1>   0.0540 
 13 C        8.2240     3.3260    -1.2630 C.ar  1 <1>  -0.1500 
 14 C        8.0020     1.9460     0.6660 C.ar  1 <1>  -0.1500 
 15 C        9.5490     3.5670    -0.9490 C.ar  1 <1>  -0.1500 
 16 C        9.3250     2.1820     0.9880 C.ar  1 <1>  -0.1500 
 17 C       10.1110     2.9920     0.1870 C.ar  1 <1>   0.0820 
 18 O       11.3970     3.1740     0.5700 O.3   1 <1>  -0.3630 
 19 C       12.2800     3.9810    -0.1760 C.3   1 <1>   0.0400 
 20 H        0.0880     4.1010    -0.3170 H     1 <1>   0.0800 
 21 H       -0.8170     2.9610     0.6700 H     1 <1>   0.0800 
 22 H       -1.1840     3.1400    -1.0270 H     1 <1>   0.0800 
 23 H        2.4660     0.3610    -1.1830 H     1 <1>   0.0800 
 24 H        2.9700     0.2630     0.4750 H     1 <1>   0.0800 
 25 H        1.3090     3.2670     1.6770 H     1 <1>   0.0800 
 26 H        2.8240     3.6050     0.8660 H     1 <1>   0.0800 
 27 H        2.6890     2.2410     1.9550 H     1 <1>   0.0800 
 28 H        7.8070     3.7790    -2.1460 H     1 <1>   0.1500 
 29 H        7.4150     1.3120     1.3060 H     1 <1>   0.1500 
 30 H       10.1260     4.2000    -1.5950 H     1 <1>   0.1500 
 31 H        9.7610     1.7380     1.8650 H     1 <1>   0.1500 
 32 H       13.2350     3.9750     0.3170 H     1 <1>   0.0800 
 33 H       11.8920     4.9840    -0.2100 H     1 <1>   0.0800 
 34 H       12.3770     3.5700    -1.1650 H     1 <1>   0.0800 
@<TRIPOS>BOND
  1   1   2  2   
  2   2   3  am  
  3   2   4  1   
  4   3   5  1   
  5   3   6  1   
  6   4  20  1   
  7   4  21  1   
  8   4  22  1   
  9   5   7  1   
 10   5  23  1   
 11   5  24  1   
 12   6  25  1   
 13   6  26  1   
 14   6  27  1   
 15   7   8  1   
 16   7   9  2   
 17   8  10  1   
 18   9  11  1   
 19  10  11  2   
 20  11  12  1   
 21  12  13  ar  
 22  12  14  ar  
 23  13  15  ar  
 24  13  28  1   
 25  14  16  ar  
 26  14  29  1   
 27  15  17  ar  
 28  15  30  1   
 29  16  17  ar  
 30  16  31  1   
 31  17  18  1   
 32  18  19  1   
 33  19  32  1   
 34  19  33  1   
 35  19  34  1   
@<TRIPOS>SUBSTRUCTURE
  1 ****  11 GROUP 4 **** **** 0

# MOE 2024.06 (io_trps.svl 2023.06)
