@<TRIPOS>MOLECULE
2-(Biphenyl-4-yloxy)-1-pyrrolidin-1-yl-propan-1-one
43 45 1 0 0 
SMALL
USER_CHARGES


@<TRIPOS>ATOM
  1 O       -0.4050     0.0020     0.9120 O.2   1 <1>  -0.5700 
  2 C       -1.0850     0.9580     0.6100 C.2   1 <1>   0.5690 
  3 N       -0.5490     1.9800    -0.1390 N.am  1 <1>  -0.6600 
  4 C       -2.5330     0.9680     1.1390 C.3   1 <1>   0.2610 
  5 C       -1.2430     3.1940    -0.6300 C.3   1 <1>   0.1400 
  6 C        0.8660     1.9740    -0.5670 C.3   1 <1>   0.1400 
  7 O       -3.4590     1.3440     0.1270 O.3   1 <1>  -0.3630 
  8 C       -2.7080     1.9060     2.3450 C.3   1 <1>  -0.2400 
  9 C       -0.2320     3.8870    -1.5370 C.3   1 <1>  -0.1600 
 10 C        1.1290     3.3920    -1.0580 C.3   1 <1>  -0.1600 
 11 C       -4.7670     0.9900     0.1370 C.ar  1 <1>   0.0820 
 12 C       -5.3640     0.2020     1.1180 C.ar  1 <1>  -0.1500 
 13 C       -5.5410     1.4550    -0.9140 C.ar  1 <1>  -0.1500 
 14 C       -6.7100    -0.1050     1.0350 C.ar  1 <1>  -0.1500 
 15 C       -6.8850     1.1430    -0.9900 C.ar  1 <1>  -0.1500 
 16 C       -7.4950     0.3570    -0.0170 C.ar  1 <1>   0.0000 
 17 C       -8.8990     0.0280    -0.0970 C.ar  1 <1>   0.0000 
 18 C       -9.3210    -1.2970    -0.1520 C.ar  1 <1>  -0.1500 
 19 C       -9.8700     1.0250    -0.1210 C.ar  1 <1>  -0.1500 
 20 C      -10.6650    -1.6170    -0.2270 C.ar  1 <1>  -0.1500 
 21 C      -11.2150     0.7120    -0.1970 C.ar  1 <1>  -0.1500 
 22 C      -11.6150    -0.6120    -0.2500 C.ar  1 <1>  -0.1500 
 23 H       -2.7540    -0.0440     1.4260 H     1 <1>   0.0800 
 24 H       -1.4900     3.8260     0.2050 H     1 <1>   0.0800 
 25 H       -2.1340     2.9410    -1.1770 H     1 <1>   0.0800 
 26 H        0.9850     1.2660    -1.3690 H     1 <1>   0.0800 
 27 H        1.5150     1.7060     0.2490 H     1 <1>   0.0800 
 28 H       -2.4960     2.9200     2.0650 H     1 <1>   0.0800 
 29 H       -2.0230     1.6180     3.1220 H     1 <1>   0.0800 
 30 H       -3.7070     1.8470     2.7340 H     1 <1>   0.0800 
 31 H       -0.3200     4.9580    -1.4890 H     1 <1>   0.0800 
 32 H       -0.3990     3.5680    -2.5510 H     1 <1>   0.0800 
 33 H        1.8730     3.4150    -1.8340 H     1 <1>   0.0800 
 34 H        1.4670     3.9900    -0.2290 H     1 <1>   0.0800 
 35 H       -4.8060    -0.1800     1.9500 H     1 <1>   0.1500 
 36 H       -5.0810     2.0610    -1.6740 H     1 <1>   0.1500 
 37 H       -7.1670    -0.7110     1.7980 H     1 <1>   0.1500 
 38 H       -7.4730     1.5070    -1.8140 H     1 <1>   0.1500 
 39 H       -8.5860    -2.0820    -0.1390 H     1 <1>   0.1500 
 40 H       -9.5650     2.0560    -0.0770 H     1 <1>   0.1500 
 41 H      -10.9720    -2.6480    -0.2690 H     1 <1>   0.1500 
 42 H      -11.9510     1.4970    -0.2140 H     1 <1>   0.1500 
 43 H      -12.6610    -0.8580    -0.3090 H     1 <1>   0.1500 
@<TRIPOS>BOND
  1   1   2  2   
  2   2   3  am  
  3   2   4  1   
  4   3   5  1   
  5   3   6  1   
  6   4   7  1   
  7   4   8  1   
  8   4  23  1   
  9   5   9  1   
 10   5  24  1   
 11   5  25  1   
 12   6  10  1   
 13   6  26  1   
 14   6  27  1   
 15   7  11  1   
 16   8  28  1   
 17   8  29  1   
 18   8  30  1   
 19   9  10  1   
 20   9  31  1   
 21   9  32  1   
 22  10  33  1   
 23  10  34  1   
 24  11  12  ar  
 25  11  13  ar  
 26  12  14  ar  
 27  12  35  1   
 28  13  15  ar  
 29  13  36  1   
 30  14  16  ar  
 31  14  37  1   
 32  15  16  ar  
 33  15  38  1   
 34  16  17  1   
 35  17  18  ar  
 36  17  19  ar  
 37  18  20  ar  
 38  18  39  1   
 39  19  21  ar  
 40  19  40  1   
 41  20  22  ar  
 42  20  41  1   
 43  21  22  ar  
 44  21  42  1   
 45  22  43  1   
@<TRIPOS>SUBSTRUCTURE
  1 ****  11 GROUP 4 **** **** 0

# MOE 2024.06 (io_trps.svl 2023.06)
