@<TRIPOS>MOLECULE
5-Oxo-1-phenyl-pyrrolidine-3-carboxylic acid (5-ethyl-[1,3,4]thiadiazol-2-yl)-am
38 40 1 0 0 
SMALL
USER_CHARGES


@<TRIPOS>ATOM
  1 S       -0.1560    -0.2720    -0.5530 S.3   1 <1>  -0.0800 
  2 C       -1.8630    -0.1070    -0.3000 C.2   1 <1>   0.4420 
  3 C        0.0000     1.3920    -0.1060 C.2   1 <1>   0.1980 
  4 N       -2.1850     1.0770     0.0710 N.2   1 <1>  -0.3380 
  5 N       -2.6300    -1.2330    -0.5200 N.am  1 <1>  -0.4940 
  6 N       -1.1180     1.9270     0.1790 N.2   1 <1>  -0.3380 
  7 C        1.4000     1.9880    -0.1100 C.3   1 <1>   0.0200 
  8 C       -3.9840    -1.3860    -0.4130 C.2   1 <1>   0.5690 
  9 C        1.4220     3.4670     0.3010 C.3   1 <1>  -0.2400 
 10 O       -4.7330    -0.4900    -0.1270 O.2   1 <1>  -0.5700 
 11 C       -4.5640    -2.7660    -0.6950 C.3   1 <1>  -0.0190 
 12 C       -6.0540    -2.8960    -0.3410 C.3   1 <1>   0.1400 
 13 C       -3.8890    -3.9070     0.0820 C.3   1 <1>  -0.0990 
 14 N       -6.2230    -4.3150     0.0370 N.am  1 <1>  -0.4770 
 15 C       -5.0090    -4.8890     0.2810 C.2   1 <1>   0.5690 
 16 C       -7.5020    -4.9070     0.0810 C.ar  1 <1>   0.1170 
 17 O       -4.7870    -6.0280     0.6070 O.2   1 <1>  -0.5700 
 18 C       -7.6940    -6.2360    -0.2860 C.ar  1 <1>  -0.1500 
 19 C       -8.6160    -4.1720     0.4830 C.ar  1 <1>  -0.1500 
 20 C       -8.9520    -6.8110    -0.2590 C.ar  1 <1>  -0.1500 
 21 C       -9.8760    -4.7430     0.5100 C.ar  1 <1>  -0.1500 
 22 C      -10.0470    -6.0640     0.1380 C.ar  1 <1>  -0.1500 
 23 H       -2.1010    -2.0530    -0.7970 H     1 <1>   0.3700 
 24 H        1.8130     1.8910    -1.0980 H     1 <1>   0.0800 
 25 H        2.0160     1.4240     0.5670 H     1 <1>   0.0800 
 26 H        0.8220     4.0490    -0.3760 H     1 <1>   0.0800 
 27 H        2.4290     3.8440     0.2840 H     1 <1>   0.0800 
 28 H        1.0260     3.5820     1.2950 H     1 <1>   0.0800 
 29 H       -4.4690    -2.9580    -1.7490 H     1 <1>   0.0800 
 30 H       -6.6810    -2.6400    -1.1770 H     1 <1>   0.0800 
 31 H       -6.3080    -2.2810     0.5060 H     1 <1>   0.0800 
 32 H       -3.5490    -3.5820     1.0490 H     1 <1>   0.0800 
 33 H       -3.0830    -4.3560    -0.4680 H     1 <1>   0.0800 
 34 H       -6.8530    -6.8290    -0.5950 H     1 <1>   0.1500 
 35 H       -8.5040    -3.1480     0.7850 H     1 <1>   0.1500 
 36 H       -9.0770    -7.8410    -0.5450 H     1 <1>   0.1500 
 37 H      -10.7250    -4.1600     0.8230 H     1 <1>   0.1500 
 38 H      -11.0260    -6.5110     0.1600 H     1 <1>   0.1500 
@<TRIPOS>BOND
  1   1   2  1   
  2   1   3  1   
  3   2   4  2   
  4   2   5  1   
  5   3   6  2   
  6   3   7  1   
  7   4   6  1   
  8   5   8  am  
  9   5  23  1   
 10   7   9  1   
 11   7  24  1   
 12   7  25  1   
 13   8  10  2   
 14   8  11  1   
 15   9  26  1   
 16   9  27  1   
 17   9  28  1   
 18  11  12  1   
 19  11  13  1   
 20  11  29  1   
 21  12  14  1   
 22  12  30  1   
 23  12  31  1   
 24  13  15  1   
 25  13  32  1   
 26  13  33  1   
 27  14  15  am  
 28  14  16  1   
 29  15  17  2   
 30  16  18  ar  
 31  16  19  ar  
 32  18  20  ar  
 33  18  34  1   
 34  19  21  ar  
 35  19  35  1   
 36  20  22  ar  
 37  20  36  1   
 38  21  22  ar  
 39  21  37  1   
 40  22  38  1   
@<TRIPOS>SUBSTRUCTURE
  1 ****  11 GROUP 4 **** **** 0

# MOE 2024.06 (io_trps.svl 2023.06)
