@<TRIPOS>MOLECULE
Morpholine-4-carboxylic acid [3-(3,4-dimethoxy-phenyl)-[1,2,4]oxadiazol-5-ylmeth
54 56 1 0 0 
SMALL
USER_CHARGES


@<TRIPOS>ATOM
  1 O       -0.5270     2.1050     2.1150 O.2   1 <1>  -0.5700 
  2 C        0.2750     2.1290     1.2000 C.2   1 <1>   0.6900 
  3 N       -0.1670     2.0620    -0.0940 N.am  1 <1>  -0.6600 
  4 N        1.6150     2.2080     1.4600 N.am  1 <1>  -0.6600 
  5 C       -1.5140     1.5020    -0.4100 C.3   1 <1>   0.1400 
  6 C        0.3160     3.0420    -1.1110 C.3   1 <1>   0.1400 
  7 C        2.0900     2.9460     2.6670 C.3   1 <1>   0.2200 
  8 C        2.5220     1.2290     0.7730 C.3   1 <1>   0.3200 
  9 C       -2.4980     2.6250    -0.7720 C.3   1 <1>   0.1200 
 10 C       -0.7820     4.0640    -1.4550 C.3   1 <1>   0.1200 
 11 C        2.8640     4.1930     2.2440 C.3   1 <1>  -0.2400 
 12 C        2.9190     2.0620     3.6000 C.3   1 <1>  -0.2400 
 13 C        3.7310     1.8670     0.1030 C.2   1 <1>   0.2980 
 14 O       -1.9750     3.4190    -1.8000 O.3   1 <1>  -0.5600 
 15 O        3.5330     2.6970    -0.8870 O.3   1 <1>  -0.0190 
 16 N        4.9480     1.6660     0.4070 N.2   1 <1>  -0.5650 
 17 N        4.7250     3.0630    -1.2370 N.2   1 <1>  -0.4100 
 18 C        5.5660     2.4580    -0.4750 C.2   1 <1>   0.4620 
 19 C        7.0120     2.5940    -0.5320 C.ar  1 <1>   0.0540 
 20 C        7.8530     1.9030     0.3390 C.ar  1 <1>  -0.1500 
 21 C        7.6240     3.4270    -1.4690 C.ar  1 <1>  -0.1500 
 22 C        9.2310     2.0210     0.2920 C.ar  1 <1>   0.0820 
 23 C        8.9980     3.5700    -1.5290 C.ar  1 <1>  -0.1500 
 24 O        9.9050     1.2680     1.2070 O.3   1 <1>  -0.3630 
 25 C        9.8250     2.8790    -0.6470 C.ar  1 <1>   0.0820 
 26 C       11.1500     0.6860     0.8880 C.3   1 <1>   0.0400 
 27 O       11.1790     3.0360    -0.6710 O.3   1 <1>  -0.3630 
 28 C       11.8100     4.0110    -1.4720 C.3   1 <1>   0.0400 
 29 H       -1.8950     0.9480     0.4300 H     1 <1>   0.0800 
 30 H       -1.4290     0.8250    -1.2410 H     1 <1>   0.0800 
 31 H        0.6110     2.5180    -2.0020 H     1 <1>   0.0800 
 32 H        1.1700     3.5770    -0.7350 H     1 <1>   0.0800 
 33 H        1.2290     3.2820     3.2230 H     1 <1>   0.0800 
 34 H        1.9750     0.6910     0.0210 H     1 <1>   0.0800 
 35 H        2.8640     0.5010     1.4850 H     1 <1>   0.0800 
 36 H       -2.6920     3.2460     0.0850 H     1 <1>   0.0800 
 37 H       -3.4270     2.2090    -1.1170 H     1 <1>   0.0800 
 38 H       -0.4790     4.6660    -2.2930 H     1 <1>   0.0800 
 39 H       -0.9700     4.7100    -0.6150 H     1 <1>   0.0800 
 40 H        3.8070     3.9390     1.7970 H     1 <1>   0.0800 
 41 H        2.2820     4.7710     1.5490 H     1 <1>   0.0800 
 42 H        3.0620     4.8020     3.1070 H     1 <1>   0.0800 
 43 H        3.8600     1.7940     3.1560 H     1 <1>   0.0800 
 44 H        2.3660     1.1760     3.8550 H     1 <1>   0.0800 
 45 H        3.1250     2.5990     4.5090 H     1 <1>   0.0800 
 46 H        7.4280     1.2480     1.0780 H     1 <1>   0.1500 
 47 H        7.0110     3.9750    -2.1640 H     1 <1>   0.1500 
 48 H        9.4020     4.2290    -2.2730 H     1 <1>   0.1500 
 49 H       11.3110    -0.1440     1.5510 H     1 <1>   0.0800 
 50 H       11.9230     1.4200     1.0310 H     1 <1>   0.0800 
 51 H       11.1310     0.3460    -0.1320 H     1 <1>   0.0800 
 52 H       12.8640     3.9850    -1.2600 H     1 <1>   0.0800 
 53 H       11.4120     4.9790    -1.2230 H     1 <1>   0.0800 
 54 H       11.6410     3.7750    -2.5080 H     1 <1>   0.0800 
@<TRIPOS>BOND
  1   1   2  2   
  2   2   3  am  
  3   2   4  am  
  4   3   5  1   
  5   3   6  1   
  6   4   7  1   
  7   4   8  1   
  8   5   9  1   
  9   5  29  1   
 10   5  30  1   
 11   6  10  1   
 12   6  31  1   
 13   6  32  1   
 14   7  11  1   
 15   7  12  1   
 16   7  33  1   
 17   8  13  1   
 18   8  34  1   
 19   8  35  1   
 20   9  14  1   
 21   9  36  1   
 22   9  37  1   
 23  10  14  1   
 24  10  38  1   
 25  10  39  1   
 26  11  40  1   
 27  11  41  1   
 28  11  42  1   
 29  12  43  1   
 30  12  44  1   
 31  12  45  1   
 32  13  15  1   
 33  13  16  2   
 34  15  17  1   
 35  16  18  1   
 36  17  18  2   
 37  18  19  1   
 38  19  20  ar  
 39  19  21  ar  
 40  20  22  ar  
 41  20  46  1   
 42  21  23  ar  
 43  21  47  1   
 44  22  24  1   
 45  22  25  ar  
 46  23  25  ar  
 47  23  48  1   
 48  24  26  1   
 49  25  27  1   
 50  26  49  1   
 51  26  50  1   
 52  26  51  1   
 53  27  28  1   
 54  28  52  1   
 55  28  53  1   
 56  28  54  1   
@<TRIPOS>SUBSTRUCTURE
  1 ****  13 GROUP 4 **** **** 0

# MOE 2024.06 (io_trps.svl 2023.06)
