@<TRIPOS>MOLECULE
Furan-2-carboxylic acid (4-cyclopentylcarbamoyl-phenyl)-amide
40 42 1 0 0 
SMALL
USER_CHARGES


@<TRIPOS>ATOM
  1 O       -0.4970     0.6310    -2.1410 O.2   1 <1>  -0.5700 
  2 C       -0.9490     1.1910    -1.1610 C.2   1 <1>   0.5440 
  3 N       -0.1090     1.9500    -0.3960 N.am  1 <1>  -0.7300 
  4 C       -2.3460     1.0440    -0.8010 C.ar  1 <1>   0.0860 
  5 C        1.3240     2.1760    -0.6540 C.3   1 <1>   0.2200 
  6 C       -3.0420     2.0330    -0.1000 C.ar  1 <1>  -0.1500 
  7 C       -3.0620    -0.1030    -1.1470 C.ar  1 <1>  -0.1500 
  8 C        2.1280     1.5990     0.5050 C.3   1 <1>  -0.1600 
  9 C        1.6070     3.6700    -0.5680 C.3   1 <1>  -0.1600 
 10 C       -4.3700     1.8740     0.2460 C.ar  1 <1>  -0.1500 
 11 C       -4.3900    -0.2640    -0.8020 C.ar  1 <1>  -0.1500 
 12 C        2.0780     2.6550     1.6150 C.3   1 <1>  -0.1600 
 13 C        1.7430     3.9850     0.9270 C.3   1 <1>  -0.1600 
 14 C       -5.0700     0.7220    -0.0930 C.ar  1 <1>   0.1170 
 15 N       -6.4140     0.6190     0.2770 N.am  1 <1>  -0.5470 
 16 C       -7.2680    -0.4500     0.4040 C.2   1 <1>   0.7150 
 17 O       -6.8800    -1.5870     0.2120 O.2   1 <1>  -0.5700 
 18 C       -8.6340    -0.1900     0.7860 C.2   1 <1>   0.0550 
 19 O       -9.0520     1.0540     1.0180 O.3   1 <1>  -0.2800 
 20 C       -9.6830    -1.0380     0.9770 C.2   1 <1>  -0.1500 
 21 C      -10.3240     1.0180     1.3470 C.2   1 <1>  -0.0100 
 22 C      -10.7780    -0.2530     1.3410 C.2   1 <1>  -0.1500 
 23 H       -0.4300     2.3160     0.4980 H     1 <1>   0.3700 
 24 H        1.6150     1.7580    -1.6040 H     1 <1>   0.0800 
 25 H       -2.5360     2.9420     0.1690 H     1 <1>   0.1500 
 26 H       -2.5590    -0.8800    -1.6980 H     1 <1>   0.1500 
 27 H        3.1470     1.4800     0.1820 H     1 <1>   0.0800 
 28 H        1.7540     0.6410     0.8200 H     1 <1>   0.0800 
 29 H        0.8450     4.2570    -1.0520 H     1 <1>   0.0800 
 30 H        2.5480     3.8640    -1.0520 H     1 <1>   0.0800 
 31 H       -4.8720     2.6560     0.7870 H     1 <1>   0.1500 
 32 H       -4.8970    -1.1650    -1.0970 H     1 <1>   0.1500 
 33 H        3.0190     2.7070     2.1360 H     1 <1>   0.0800 
 34 H        1.3050     2.4070     2.3220 H     1 <1>   0.0800 
 35 H        0.8120     4.3670     1.3080 H     1 <1>   0.0800 
 36 H        2.5130     4.7190     1.0940 H     1 <1>   0.0800 
 37 H       -6.8700     1.4930     0.5360 H     1 <1>   0.3700 
 38 H       -9.6800    -2.1090     0.8720 H     1 <1>   0.1500 
 39 H      -10.8350     1.9390     1.5720 H     1 <1>   0.1500 
 40 H      -11.7660    -0.6160     1.5640 H     1 <1>   0.1500 
@<TRIPOS>BOND
  1   1   2  2   
  2   2   3  am  
  3   2   4  1   
  4   3   5  1   
  5   3  23  1   
  6   4   6  ar  
  7   4   7  ar  
  8   5   8  1   
  9   5   9  1   
 10   5  24  1   
 11   6  10  ar  
 12   6  25  1   
 13   7  11  ar  
 14   7  26  1   
 15   8  12  1   
 16   8  27  1   
 17   8  28  1   
 18   9  13  1   
 19   9  29  1   
 20   9  30  1   
 21  10  14  ar  
 22  10  31  1   
 23  11  14  ar  
 24  11  32  1   
 25  12  13  1   
 26  12  33  1   
 27  12  34  1   
 28  13  35  1   
 29  13  36  1   
 30  14  15  1   
 31  15  16  am  
 32  15  37  1   
 33  16  17  2   
 34  16  18  1   
 35  18  19  1   
 36  18  20  2   
 37  19  21  1   
 38  20  22  1   
 39  20  38  1   
 40  21  22  2   
 41  21  39  1   
 42  22  40  1   
@<TRIPOS>SUBSTRUCTURE
  1 ****  10 GROUP 4 **** **** 0

# MOE 2024.06 (io_trps.svl 2023.06)
