@<TRIPOS>MOLECULE
8-Azepan-1-yl-7-(2-hydroxy-2-phenyl-ethyl)-3-methyl-3,7-dihydro-purine-2,6-dione
54 57 1 0 0 
SMALL
USER_CHARGES


@<TRIPOS>ATOM
  1 O        1.5680     1.7420    -1.2750 O.2   1 <1>  -0.5740 
  2 C        2.6690     1.9390    -0.8180 C.2   1 <1>   0.6860 
  3 N        3.6490     0.9580    -0.7960 N.am  1 <1>  -0.4410 
  4 N        2.9490     3.1710    -0.3040 N.am  1 <1>  -0.4950 
  5 C        4.8900     1.3030    -0.2800 C.2   1 <1>   0.4210 
  6 C        3.3860    -0.4040    -1.3440 C.3   1 <1>   0.0530 
  7 C        4.1530     3.5120     0.2430 C.2   1 <1>   0.7000 
  8 N        5.9880     0.5150    -0.1800 N.pl3 1 <1>  -0.7030 
  9 C        5.1950     2.5230     0.2120 C.2   1 <1>   0.2710 
 10 O        4.2580     4.6070     0.7620 O.2   1 <1>  -0.5740 
 11 C        6.9940     1.2260     0.3350 C.cat 1 <1>   1.0690 
 12 N        6.5560     2.4730     0.5910 N.pl3 1 <1>  -0.7670 
 13 N        8.2190     0.6740     0.5360 N.pl3 1 <1>  -0.5960 
 14 C        7.2410     3.7340     1.0360 C.3   1 <1>   0.3480 
 15 C        8.3950    -0.8110     0.5510 C.3   1 <1>   0.1610 
 16 C        9.4660     1.4550     0.8010 C.3   1 <1>   0.1610 
 17 C        7.7330     4.6110    -0.1470 C.3   1 <1>   0.3380 
 18 C        8.6850    -1.3340    -0.8620 C.3   1 <1>  -0.1670 
 19 C       10.7430     0.8590     0.1920 C.3   1 <1>  -0.1670 
 20 O        6.7920     4.6680    -1.1660 O.3   1 <1>  -0.6840 
 21 C        8.0340     6.0340     0.2940 C.ar  1 <1>  -0.1500 
 22 C       10.1250    -1.0930    -1.3360 C.3   1 <1>  -0.1670 
 23 C       10.5920     0.3670    -1.2570 C.3   1 <1>  -0.1670 
 24 C        9.3450     6.4910     0.3080 C.ar  1 <1>  -0.1570 
 25 C        7.0150     6.8910     0.6900 C.ar  1 <1>  -0.1570 
 26 C        9.6320     7.7810     0.7180 C.ar  1 <1>  -0.1570 
 27 C        7.3030     8.1800     1.1000 C.ar  1 <1>  -0.1570 
 28 C        8.6120     8.6260     1.1150 C.ar  1 <1>  -0.1570 
 29 H        2.2040     3.8640    -0.3110 H     1 <1>   0.3650 
 30 H        2.3370    -0.5390    -1.5460 H     1 <1>   0.0730 
 31 H        3.6890    -1.1530    -0.6330 H     1 <1>   0.0730 
 32 H        3.9300    -0.5380    -2.2620 H     1 <1>   0.0730 
 33 H        6.0840    -0.4400    -0.5070 H     1 <1>   0.4450 
 34 H        8.0660     3.5100     1.6850 H     1 <1>   0.0730 
 35 H        6.5570     4.3140     1.6310 H     1 <1>   0.0730 
 36 H        7.5010    -1.2790     0.9260 H     1 <1>   0.0730 
 37 H        9.1900    -1.0910     1.2230 H     1 <1>   0.0730 
 38 H        9.5990     1.5660     1.8640 H     1 <1>   0.0730 
 39 H        9.3660     2.4300     0.3700 H     1 <1>   0.0730 
 40 H        8.6200     4.1810    -0.5750 H     1 <1>   0.0730 
 41 H        8.0010    -0.9040    -1.5710 H     1 <1>   0.0730 
 42 H        8.5210    -2.3980    -0.8670 H     1 <1>   0.0730 
 43 H       11.1230     0.0700     0.8180 H     1 <1>   0.0730 
 44 H       11.4920     1.6320     0.2060 H     1 <1>   0.0730 
 45 H        6.8920     5.5320    -1.6200 H     1 <1>   0.3950 
 46 H       10.2040    -1.4210    -2.3590 H     1 <1>   0.0730 
 47 H       10.7970    -1.7080    -0.7600 H     1 <1>   0.0730 
 48 H       11.5600     0.4200    -1.7280 H     1 <1>   0.0730 
 49 H        9.9320     1.0090    -1.8150 H     1 <1>   0.0730 
 50 H       10.1570     5.8550     0.0010 H     1 <1>   0.1430 
 51 H        5.9880     6.5660     0.6830 H     1 <1>   0.1430 
 52 H       10.6500     8.1310     0.7270 H     1 <1>   0.1430 
 53 H        6.5080     8.8370     1.4070 H     1 <1>   0.1430 
 54 H        8.8350     9.6300     1.4330 H     1 <1>   0.1430 
@<TRIPOS>BOND
  1   1   2  2   
  2   2   3  am  
  3   2   4  am  
  4   3   5  1   
  5   3   6  1   
  6   4   7  am  
  7   4  29  1   
  8   5   8  1   
  9   5   9  2   
 10   6  30  1   
 11   6  31  1   
 12   6  32  1   
 13   7   9  1   
 14   7  10  2   
 15   8  11  ar  
 16   8  33  1   
 17   9  12  1   
 18  11  12  ar  
 19  11  13  ar  
 20  12  14  1   
 21  13  15  1   
 22  13  16  1   
 23  14  17  1   
 24  14  34  1   
 25  14  35  1   
 26  15  18  1   
 27  15  36  1   
 28  15  37  1   
 29  16  19  1   
 30  16  38  1   
 31  16  39  1   
 32  17  20  1   
 33  17  21  1   
 34  17  40  1   
 35  18  22  1   
 36  18  41  1   
 37  18  42  1   
 38  19  23  1   
 39  19  43  1   
 40  19  44  1   
 41  20  45  1   
 42  21  24  ar  
 43  21  25  ar  
 44  22  23  1   
 45  22  46  1   
 46  22  47  1   
 47  23  48  1   
 48  23  49  1   
 49  24  26  ar  
 50  24  50  1   
 51  25  27  ar  
 52  25  51  1   
 53  26  28  ar  
 54  26  52  1   
 55  27  28  ar  
 56  27  53  1   
 57  28  54  1   
@<TRIPOS>SUBSTRUCTURE
  1 ****  12 GROUP 4 **** **** 0

# MOE 2024.06 (io_trps.svl 2023.06)
