@<TRIPOS>MOLECULE
2,3-Dihydro-benzo[1,4]dioxine-2-carboxylic acid [2-methoxy-5-(piperidine-1-sulfo
54 57 1 0 0 
SMALL
USER_CHARGES


@<TRIPOS>ATOM
  1 S       -0.1830    -1.1090    -1.5610 S.o2  1 <1>   1.4470 
  2 O       -0.1080    -0.2780    -2.7430 O.2   1 <1>  -0.6500 
  3 O        0.7840    -2.1730    -1.3940 O.2   1 <1>  -0.6500 
  4 N       -0.0330    -0.0950    -0.2110 N.am  1 <1>  -0.8490 
  5 C       -1.8610    -1.7940    -1.4370 C.ar  1 <1>  -0.0090 
  6 C        0.0420    -0.8470     1.0470 C.3   1 <1>   0.1960 
  7 C        1.1030     0.8190    -0.3450 C.3   1 <1>   0.1960 
  8 C       -2.8730    -1.1330    -0.7510 C.ar  1 <1>  -0.1500 
  9 C       -2.1780    -3.0010    -2.0490 C.ar  1 <1>  -0.1500 
 10 C       -0.0220     0.1160     2.2360 C.3   1 <1>  -0.1600 
 11 C        1.0990     1.8390     0.8000 C.3   1 <1>  -0.1600 
 12 C       -4.1550    -1.6560    -0.6400 C.ar  1 <1>   0.1170 
 13 C       -3.4530    -3.5340    -1.9770 C.ar  1 <1>  -0.1500 
 14 C        1.1070     1.1510     2.1710 C.3   1 <1>  -0.1600 
 15 N       -5.1710    -1.0090     0.0830 N.am  1 <1>  -0.5470 
 16 C       -4.4490    -2.8650    -1.2760 C.ar  1 <1>   0.0820 
 17 C       -5.1410    -0.1040     1.1090 C.2   1 <1>   0.5690 
 18 O       -5.7280    -3.3330    -1.1720 O.3   1 <1>  -0.3630 
 19 O       -4.1160     0.3340     1.5760 O.2   1 <1>  -0.5700 
 20 C       -6.4660     0.3760     1.6960 C.3   1 <1>   0.2610 
 21 C       -6.1180    -4.5480    -1.7740 C.3   1 <1>   0.0400 
 22 O       -7.5540    -0.3970     1.1880 O.3   1 <1>  -0.3620 
 23 C       -6.6830     1.8630     1.3810 C.3   1 <1>   0.1200 
 24 C       -8.8000     0.1170     1.3340 C.ar  1 <1>   0.0820 
 25 O       -7.9450     2.2970     1.8570 O.3   1 <1>  -0.3630 
 26 C       -8.9950     1.4560     1.6800 C.ar  1 <1>   0.0820 
 27 C       -9.8910    -0.7130     1.1390 C.ar  1 <1>  -0.1500 
 28 C      -10.2780     1.9470     1.8430 C.ar  1 <1>  -0.1500 
 29 C      -11.1740    -0.2150     1.2980 C.ar  1 <1>  -0.1500 
 30 C      -11.3680     1.1110     1.6520 C.ar  1 <1>  -0.1500 
 31 H        0.9570    -1.4160     1.0830 H     1 <1>   0.0800 
 32 H       -0.7840    -1.5350     1.1150 H     1 <1>   0.0800 
 33 H        1.0340     1.3530    -1.2790 H     1 <1>   0.0800 
 34 H        2.0240     0.2600    -0.3440 H     1 <1>   0.0800 
 35 H       -2.6510    -0.1850    -0.2930 H     1 <1>   0.1500 
 36 H       -1.4110    -3.5290    -2.5910 H     1 <1>   0.1500 
 37 H        0.0500    -0.4430     3.1520 H     1 <1>   0.0800 
 38 H       -0.9780     0.6120     2.2280 H     1 <1>   0.0800 
 39 H        0.2190     2.4520     0.7080 H     1 <1>   0.0800 
 40 H        1.9570     2.4800     0.7100 H     1 <1>   0.0800 
 41 H       -3.6440    -4.4670    -2.4730 H     1 <1>   0.1500 
 42 H        2.0530     0.6600     2.3190 H     1 <1>   0.0800 
 43 H        0.9820     1.8820     2.9510 H     1 <1>   0.0800 
 44 H       -6.1030    -1.3920    -0.1120 H     1 <1>   0.3700 
 45 H       -6.4380     0.2380     2.7610 H     1 <1>   0.0800 
 46 H       -7.1580    -4.7100    -1.5560 H     1 <1>   0.0800 
 47 H       -5.5300    -5.3480    -1.3600 H     1 <1>   0.0800 
 48 H       -5.9760    -4.4730    -2.8380 H     1 <1>   0.0800 
 49 H       -6.6510     2.0290     0.3190 H     1 <1>   0.0800 
 50 H       -5.9260     2.4640     1.8520 H     1 <1>   0.0800 
 51 H       -9.7340    -1.7410     0.8670 H     1 <1>   0.1500 
 52 H      -10.4190     2.9770     2.1160 H     1 <1>   0.1500 
 53 H      -12.0230    -0.8600     1.1480 H     1 <1>   0.1500 
 54 H      -12.3660     1.4950     1.7770 H     1 <1>   0.1500 
@<TRIPOS>BOND
  1   1   2  2   
  2   1   3  2   
  3   1   4  am  
  4   1   5  1   
  5   4   6  1   
  6   4   7  1   
  7   5   8  ar  
  8   5   9  ar  
  9   6  10  1   
 10   6  31  1   
 11   6  32  1   
 12   7  11  1   
 13   7  33  1   
 14   7  34  1   
 15   8  12  ar  
 16   8  35  1   
 17   9  13  ar  
 18   9  36  1   
 19  10  14  1   
 20  10  37  1   
 21  10  38  1   
 22  11  14  1   
 23  11  39  1   
 24  11  40  1   
 25  12  15  1   
 26  12  16  ar  
 27  13  16  ar  
 28  13  41  1   
 29  14  42  1   
 30  14  43  1   
 31  15  17  am  
 32  15  44  1   
 33  16  18  1   
 34  17  19  2   
 35  17  20  1   
 36  18  21  1   
 37  20  22  1   
 38  20  23  1   
 39  20  45  1   
 40  21  46  1   
 41  21  47  1   
 42  21  48  1   
 43  22  24  1   
 44  23  25  1   
 45  23  49  1   
 46  23  50  1   
 47  24  26  ar  
 48  24  27  ar  
 49  25  26  1   
 50  26  28  ar  
 51  27  29  ar  
 52  27  51  1   
 53  28  30  ar  
 54  28  52  1   
 55  29  30  ar  
 56  29  53  1   
 57  30  54  1   
@<TRIPOS>SUBSTRUCTURE
  1 ****  15 GROUP 4 **** **** 0

# MOE 2024.06 (io_trps.svl 2023.06)
