@<TRIPOS>MOLECULE
3-(1,7-Dimethyl-2,4-dioxo-8-m-tolyl-1,2,4,8-tetrahydro-imidazo[2,1-f]purin-3-yl)
51 54 1 0 0 
SMALL
USER_CHARGES


@<TRIPOS>ATOM
  1 O        0.0190     0.9650    -0.1460 O.2   1 <1>  -0.5740 
  2 C        1.1970     1.1200     0.1000 C.2   1 <1>   0.6860 
  3 N        1.6600     2.3550     0.5430 N.am  1 <1>  -0.4260 
  4 N        2.0820     0.0590    -0.0680 N.am  1 <1>  -0.4410 
  5 C        3.0090     2.5700     0.7910 C.2   1 <1>   0.6990 
  6 C        0.6800     3.4580     0.7970 C.3   1 <1>   0.1330 
  7 C        3.4140     0.2670     0.2290 C.2   1 <1>   0.4210 
  8 C        1.5900    -1.2710    -0.5370 C.3   1 <1>   0.0520 
  9 O        3.4210     3.6680     1.1220 O.2   1 <1>  -0.5740 
 10 C        3.8970     1.4650     0.6410 C.2   1 <1>   0.2710 
 11 C        0.4470     4.2790    -0.4760 C.3   1 <1>  -0.1070 
 12 N        4.4380    -0.6370     0.1690 N.pl3 1 <1>  -0.7040 
 13 N        5.2750     1.2880     0.8340 N.pl3 1 <1>  -0.6330 
 14 C       -0.5360     5.4070    -0.2410 C.2   1 <1>   0.6550 
 15 C        5.5390     0.0230     0.5410 C.cat 1 <1>   1.0690 
 16 C        6.4740     1.8720     1.2020 C.2   1 <1>   0.2220 
 17 O       -0.9850     5.6520     0.8490 O.2   1 <1>  -0.5740 
 18 O       -0.8640     6.1070    -1.3180 O.3   1 <1>  -0.4350 
 19 N        6.8350    -0.2660     0.6940 N.pl3 1 <1>  -0.5550 
 20 C        7.4280     0.9180     1.1140 C.2   1 <1>   0.1580 
 21 C       -1.7690     7.1890    -1.2530 C.3   1 <1>   0.0320 
 22 C        7.4300    -1.5130     0.4560 C.ar  1 <1>   0.3050 
 23 C        8.9160     1.0040     1.3960 C.3   1 <1>  -0.1090 
 24 C        7.8240    -1.8630    -0.8270 C.ar  1 <1>  -0.1570 
 25 C        7.6010    -2.4150     1.4950 C.ar  1 <1>  -0.1570 
 26 C        8.3740    -3.1080    -1.0790 C.ar  1 <1>  -0.1510 
 27 C        8.1500    -3.6600     1.2500 C.ar  1 <1>  -0.1570 
 28 C        8.5310    -4.0040    -0.0350 C.ar  1 <1>  -0.1570 
 29 C        8.8090    -3.5010    -2.4800 C.3   1 <1>  -0.1040 
 30 H        1.0440     4.1020     1.5810 H     1 <1>   0.0720 
 31 H       -0.2560     3.0450     1.1360 H     1 <1>   0.0720 
 32 H        0.6970    -1.1560    -1.1280 H     1 <1>   0.0720 
 33 H        1.3620    -1.8930     0.3110 H     1 <1>   0.0720 
 34 H        2.3310    -1.7540    -1.1480 H     1 <1>   0.0720 
 35 H        0.0500     3.6470    -1.2480 H     1 <1>   0.0720 
 36 H        1.3720     4.7100    -0.8090 H     1 <1>   0.0720 
 37 H        4.4140    -1.6210    -0.0920 H     1 <1>   0.4450 
 38 H        6.5490     2.9090     1.4920 H     1 <1>   0.1430 
 39 H       -1.8800     7.6000    -2.2400 H     1 <1>   0.0720 
 40 H       -1.3750     7.9320    -0.5820 H     1 <1>   0.0720 
 41 H       -2.7170     6.8280    -0.8920 H     1 <1>   0.0720 
 42 H        9.1860     0.3180     2.1800 H     1 <1>   0.0720 
 43 H        9.1860     1.9990     1.7040 H     1 <1>   0.0720 
 44 H        9.4760     0.7540     0.5120 H     1 <1>   0.0720 
 45 H        7.7050    -1.1600    -1.6320 H     1 <1>   0.1430 
 46 H        7.3090    -2.1500     2.4950 H     1 <1>   0.1430 
 47 H        8.2850    -4.3650     2.0550 H     1 <1>   0.1430 
 48 H        8.9580    -4.9770    -0.2190 H     1 <1>   0.1430 
 49 H        8.8500    -2.6450    -3.1280 H     1 <1>   0.0720 
 50 H        8.1170    -4.2140    -2.8920 H     1 <1>   0.0720 
 51 H        9.7860    -3.9490    -2.4500 H     1 <1>   0.0720 
@<TRIPOS>BOND
  1   1   2  2   
  2   2   3  am  
  3   2   4  am  
  4   3   5  am  
  5   3   6  1   
  6   4   7  1   
  7   4   8  1   
  8   5   9  2   
  9   5  10  1   
 10   6  11  1   
 11   6  30  1   
 12   6  31  1   
 13   7  10  2   
 14   7  12  1   
 15   8  32  1   
 16   8  33  1   
 17   8  34  1   
 18  10  13  1   
 19  11  14  1   
 20  11  35  1   
 21  11  36  1   
 22  12  15  ar  
 23  12  37  1   
 24  13  15  ar  
 25  13  16  1   
 26  14  17  2   
 27  14  18  1   
 28  15  19  ar  
 29  16  20  2   
 30  16  38  1   
 31  18  21  1   
 32  19  20  1   
 33  19  22  1   
 34  20  23  1   
 35  21  39  1   
 36  21  40  1   
 37  21  41  1   
 38  22  24  ar  
 39  22  25  ar  
 40  23  42  1   
 41  23  43  1   
 42  23  44  1   
 43  24  26  ar  
 44  24  45  1   
 45  25  27  ar  
 46  25  46  1   
 47  26  28  ar  
 48  26  29  1   
 49  27  28  ar  
 50  27  47  1   
 51  28  48  1   
 52  29  49  1   
 53  29  50  1   
 54  29  51  1   
@<TRIPOS>SUBSTRUCTURE
  1 ****  10 GROUP 4 **** **** 0

# MOE 2024.06 (io_trps.svl 2023.06)
