@<TRIPOS>MOLECULE
Adamantane-1-carboxylic acid [3-(4-methoxy-phenyl)-[1,2,4]oxadiazol-5-ylmethyl]-
52 56 1 0 0 
SMALL
USER_CHARGES


@<TRIPOS>ATOM
  1 O        0.1460     0.8530     1.7320 O.2   1 <1>  -0.5700 
  2 C        0.4650     1.5190     0.7760 C.2   1 <1>   0.5690 
  3 N        1.7200     1.4190     0.2660 N.am  1 <1>  -0.7300 
  4 C       -0.5620     2.4830     0.1420 C.3   1 <1>   0.0610 
  5 C        2.8030     0.5880     0.8520 C.3   1 <1>   0.3200 
  6 C       -1.0120     3.5310     1.1900 C.3   1 <1>  -0.1600 
  7 C       -1.8100     1.6920    -0.3240 C.3   1 <1>  -0.1600 
  8 C        0.0060     3.2480    -1.0870 C.3   1 <1>  -0.1600 
  9 C        4.0870     1.3900     0.9910 C.2   1 <1>   0.2980 
 10 C       -2.0720     4.4820     0.6030 C.3   1 <1>  -0.0800 
 11 C       -2.8740     2.6340    -0.9180 C.3   1 <1>  -0.0800 
 12 C       -1.0490     4.1970    -1.6850 C.3   1 <1>  -0.0800 
 13 O        4.1660     2.2820     1.9430 O.3   1 <1>  -0.0190 
 14 N        5.1160     1.2880     0.2530 N.2   1 <1>  -0.5650 
 15 C       -3.2930     3.6600     0.1510 C.3   1 <1>  -0.1600 
 16 C       -1.4770     5.2160    -0.6120 C.3   1 <1>  -0.1600 
 17 C       -2.2750     3.3770    -2.1260 C.3   1 <1>  -0.1600 
 18 N        5.3490     2.7930     1.7980 N.2   1 <1>  -0.4100 
 19 C        5.9150     2.2090     0.8010 C.2   1 <1>   0.4620 
 20 C        7.2500     2.4900     0.3010 C.ar  1 <1>   0.0540 
 21 C        8.0530     3.4700     0.8890 C.ar  1 <1>  -0.1500 
 22 C        7.7890     1.7980    -0.7870 C.ar  1 <1>  -0.1500 
 23 C        9.3240     3.7500     0.4210 C.ar  1 <1>  -0.1500 
 24 C        9.0580     2.0710    -1.2610 C.ar  1 <1>  -0.1500 
 25 C        9.8380     3.0470    -0.6640 C.ar  1 <1>   0.0820 
 26 O       11.0690     3.2560    -1.1870 O.3   1 <1>  -0.3620 
 27 C       11.9410     4.2270    -0.6530 C.3   1 <1>   0.0400 
 28 H        1.9880     1.9900    -0.5360 H     1 <1>   0.3700 
 29 H        2.9830    -0.2540     0.2080 H     1 <1>   0.0800 
 30 H        2.5120     0.2170     1.8190 H     1 <1>   0.0800 
 31 H       -0.1610     4.0980     1.5250 H     1 <1>   0.0800 
 32 H       -1.4220     3.0280     2.0490 H     1 <1>   0.0800 
 33 H       -2.2330     1.1610     0.5120 H     1 <1>   0.0800 
 34 H       -1.5230     0.9600    -1.0580 H     1 <1>   0.0800 
 35 H        0.3140     2.5480    -1.8440 H     1 <1>   0.0800 
 36 H        0.8660     3.8250    -0.7940 H     1 <1>   0.0800 
 37 H       -2.3720     5.1970     1.3500 H     1 <1>   0.0800 
 38 H       -3.7320     2.0630    -1.2300 H     1 <1>   0.0800 
 39 H       -0.6360     4.7160    -2.5330 H     1 <1>   0.0800 
 40 H       -4.0470     4.3160    -0.2490 H     1 <1>   0.0800 
 41 H       -3.7210     3.1490     0.9970 H     1 <1>   0.0800 
 42 H       -0.6290     5.8030    -0.3050 H     1 <1>   0.0800 
 43 H       -2.2090     5.8900    -1.0230 H     1 <1>   0.0800 
 44 H       -3.0160     4.0310    -2.5530 H     1 <1>   0.0800 
 45 H       -1.9890     2.6700    -2.8840 H     1 <1>   0.0800 
 46 H        7.6740     4.0250     1.7300 H     1 <1>   0.1500 
 47 H        7.2060     1.0330    -1.2700 H     1 <1>   0.1500 
 48 H        9.8980     4.5140     0.9110 H     1 <1>   0.1500 
 49 H        9.4560     1.5280    -2.0990 H     1 <1>   0.1500 
 50 H       12.8500     4.2110    -1.2260 H     1 <1>   0.0800 
 51 H       12.1510     3.9810     0.3730 H     1 <1>   0.0800 
 52 H       11.4760     5.1940    -0.7320 H     1 <1>   0.0800 
@<TRIPOS>BOND
  1   1   2  2   
  2   2   3  am  
  3   2   4  1   
  4   3   5  1   
  5   3  28  1   
  6   4   6  1   
  7   4   7  1   
  8   4   8  1   
  9   5   9  1   
 10   5  29  1   
 11   5  30  1   
 12   6  10  1   
 13   6  31  1   
 14   6  32  1   
 15   7  11  1   
 16   7  33  1   
 17   7  34  1   
 18   8  12  1   
 19   8  35  1   
 20   8  36  1   
 21   9  13  1   
 22   9  14  2   
 23  10  15  1   
 24  10  16  1   
 25  10  37  1   
 26  11  15  1   
 27  11  17  1   
 28  11  38  1   
 29  12  16  1   
 30  12  17  1   
 31  12  39  1   
 32  13  18  1   
 33  14  19  1   
 34  15  40  1   
 35  15  41  1   
 36  16  42  1   
 37  16  43  1   
 38  17  44  1   
 39  17  45  1   
 40  18  19  2   
 41  19  20  1   
 42  20  21  ar  
 43  20  22  ar  
 44  21  23  ar  
 45  21  46  1   
 46  22  24  ar  
 47  22  47  1   
 48  23  25  ar  
 49  23  48  1   
 50  24  25  ar  
 51  24  49  1   
 52  25  26  1   
 53  26  27  1   
 54  27  50  1   
 55  27  51  1   
 56  27  52  1   
@<TRIPOS>SUBSTRUCTURE
  1 ****   9 GROUP 4 **** **** 0

# MOE 2024.06 (io_trps.svl 2023.06)
