@<TRIPOS>MOLECULE
1-Cyclohexyl-3-(3-m-tolyl-[1,2,4]oxadiazol-5-ylmethyl)-urea
45 47 1 0 0 
SMALL
USER_CHARGES


@<TRIPOS>ATOM
  1 O        0.1550     0.9950     1.9070 O.2   1 <1>  -0.5700 
  2 C        0.4950     1.1980     0.7600 C.2   1 <1>   0.6900 
  3 N       -0.4030     1.4820    -0.2060 N.am  1 <1>  -0.7300 
  4 N        1.7940     1.1440     0.4130 N.am  1 <1>  -0.7300 
  5 C       -1.8560     1.5860    -0.0070 C.3   1 <1>   0.2200 
  6 C        2.9000     0.9320     1.3820 C.3   1 <1>   0.3200 
  7 C       -2.5530     0.5540    -0.9000 C.3   1 <1>  -0.1600 
  8 C       -2.3030     3.0110    -0.3490 C.3   1 <1>  -0.1600 
  9 C        4.0670     1.8660     1.1020 C.2   1 <1>   0.2980 
 10 C       -4.0810     0.6880    -0.8140 C.3   1 <1>  -0.1600 
 11 C       -3.8310     3.1490    -0.2630 C.3   1 <1>  -0.1600 
 12 O        3.9170     3.1410     1.3470 O.3   1 <1>  -0.0190 
 13 N        5.2000     1.5300     0.6360 N.2   1 <1>  -0.5650 
 14 C       -4.5330     2.1150    -1.1540 C.3   1 <1>  -0.1600 
 15 N        5.0540     3.6630     1.0100 N.2   1 <1>  -0.4100 
 16 C        5.8180     2.7160     0.5900 C.2   1 <1>   0.4620 
 17 C        7.1840     2.8760     0.1180 C.ar  1 <1>   0.0540 
 18 C        7.9530     1.7850    -0.2960 C.ar  1 <1>  -0.1500 
 19 C        7.7860     4.1350     0.0610 C.ar  1 <1>  -0.1500 
 20 C        9.2540     1.9350    -0.7460 C.ar  1 <1>  -0.1440 
 21 C        9.0840     4.2960    -0.3850 C.ar  1 <1>  -0.1500 
 22 C        9.8190     3.1970    -0.7880 C.ar  1 <1>  -0.1500 
 23 C       10.0630     0.7280    -1.1880 C.3   1 <1>  -0.0970 
 24 H       -0.0790     1.6600    -1.1510 H     1 <1>   0.3700 
 25 H        2.0700     1.3320    -0.5470 H     1 <1>   0.3700 
 26 H       -2.1000     1.3800     1.0230 H     1 <1>   0.0800 
 27 H        3.2380    -0.0860     1.3060 H     1 <1>   0.0800 
 28 H        2.5540     1.0970     2.3880 H     1 <1>   0.0800 
 29 H       -2.2660    -0.4350    -0.5880 H     1 <1>   0.0800 
 30 H       -2.2470     0.6940    -1.9210 H     1 <1>   0.0800 
 31 H       -1.9860     3.2600    -1.3460 H     1 <1>   0.0800 
 32 H       -1.8450     3.7000     0.3390 H     1 <1>   0.0800 
 33 H       -4.4040     0.4400     0.1830 H     1 <1>   0.0800 
 34 H       -4.5430    -0.0090    -1.4930 H     1 <1>   0.0800 
 35 H       -4.1210     4.1410    -0.5630 H     1 <1>   0.0800 
 36 H       -4.1430     3.0090     0.7580 H     1 <1>   0.0800 
 37 H       -5.5990     2.1940    -1.0260 H     1 <1>   0.0800 
 38 H       -4.3100     2.3230    -2.1860 H     1 <1>   0.0800 
 39 H        7.5190     0.8020    -0.2620 H     1 <1>   0.1500 
 40 H        7.2280     5.0010     0.3710 H     1 <1>   0.1500 
 41 H        9.5240     5.2780    -0.4190 H     1 <1>   0.1500 
 42 H       10.8300     3.3280    -1.1340 H     1 <1>   0.1500 
 43 H        9.4190    -0.1020    -1.4130 H     1 <1>   0.0800 
 44 H       10.7400     0.4380    -0.4040 H     1 <1>   0.0800 
 45 H       10.6320     0.9650    -2.0690 H     1 <1>   0.0800 
@<TRIPOS>BOND
  1   1   2  2   
  2   2   3  am  
  3   2   4  am  
  4   3   5  1   
  5   3  24  1   
  6   4   6  1   
  7   4  25  1   
  8   5   7  1   
  9   5   8  1   
 10   5  26  1   
 11   6   9  1   
 12   6  27  1   
 13   6  28  1   
 14   7  10  1   
 15   7  29  1   
 16   7  30  1   
 17   8  11  1   
 18   8  31  1   
 19   8  32  1   
 20   9  12  1   
 21   9  13  2   
 22  10  14  1   
 23  10  33  1   
 24  10  34  1   
 25  11  14  1   
 26  11  35  1   
 27  11  36  1   
 28  12  15  1   
 29  13  16  1   
 30  14  37  1   
 31  14  38  1   
 32  15  16  2   
 33  16  17  1   
 34  17  18  ar  
 35  17  19  ar  
 36  18  20  ar  
 37  18  39  1   
 38  19  21  ar  
 39  19  40  1   
 40  20  22  ar  
 41  20  23  1   
 42  21  22  ar  
 43  21  41  1   
 44  22  42  1   
 45  23  43  1   
 46  23  44  1   
 47  23  45  1   
@<TRIPOS>SUBSTRUCTURE
  1 ****   9 GROUP 4 **** **** 0

# MOE 2024.06 (io_trps.svl 2023.06)
