@<TRIPOS>MOLECULE
3-[5-(4-Chloro-phenyl)-2H-pyrazol-3-ylamino]-5,5-dimethyl-cyclohex-2-enone
40 42 1 0 0 
SMALL
USER_CHARGES


@<TRIPOS>ATOM
  1 CL       0.1220     0.0860    -0.4300 Cl    1 <1>  -0.1770 
  2 C        1.7190     0.7630    -0.2520 C.ar  1 <1>   0.1770 
  3 C        1.8600     2.0730     0.1640 C.ar  1 <1>  -0.1500 
  4 C        2.8250    -0.0180    -0.5290 C.ar  1 <1>  -0.1500 
  5 C        3.1300     2.6050     0.3050 C.ar  1 <1>  -0.1500 
  6 C        4.0900     0.5230    -0.3860 C.ar  1 <1>  -0.1500 
  7 C        4.2660     1.8410     0.0370 C.ar  1 <1>   0.0530 
  8 C        5.5800     2.4090     0.1950 C.2   1 <1>  -0.2050 
  9 N        6.6420     1.7570     0.7240 N.pl3 1 <1>   0.3000 
 10 C        6.0500     3.6460    -0.1120 C.2   1 <1>  -0.1500 
 11 N        7.7560     2.5140     0.7630 N.2   1 <1>  -0.7070 
 12 C        7.3890     3.6500     0.2540 C.2   1 <1>   0.3720 
 13 N        8.2270     4.7710     0.1050 N.pl3 1 <1>  -0.5830 
 14 C        9.6010     4.9140     0.0640 C.2   1 <1>  -0.0380 
 15 C       10.1780     6.1180    -0.0290 C.2   1 <1>  -0.1360 
 16 C       10.4780     3.6670     0.1490 C.3   1 <1>  -0.0220 
 17 C       11.5610     6.2560    -0.0890 C.2   1 <1>   0.4950 
 18 C       12.0620     3.4660    -0.0170 C.3   1 <1>   0.0000 
 19 O       12.1060     7.3360    -0.1010 O.2   1 <1>  -0.5700 
 20 C       12.4280     5.0170    -0.1890 C.3   1 <1>  -0.0990 
 21 C       13.6300     3.1210    -0.1650 C.3   1 <1>  -0.2400 
 22 C       11.8410     1.8760     0.1330 C.3   1 <1>  -0.2400 
 23 H        0.9860     2.6640     0.3730 H     1 <1>   0.1500 
 24 H        2.6890    -1.0340    -0.8560 H     1 <1>   0.1500 
 25 H        3.2470     3.6230     0.6320 H     1 <1>   0.1500 
 26 H        4.9490    -0.0820    -0.6160 H     1 <1>   0.1500 
 27 H        6.6230     0.7970     1.0870 H     1 <1>   0.2700 
 28 H        5.5170     4.4660    -0.5540 H     1 <1>   0.1500 
 29 H        7.6870     5.6310     0.0120 H     1 <1>   0.4000 
 30 H        9.6110     7.0280    -0.0620 H     1 <1>   0.1500 
 31 H        9.9990     3.0410    -0.5910 H     1 <1>   0.0800 
 32 H       10.2260     3.3140     1.1370 H     1 <1>   0.0800 
 33 H       13.1900     5.2650     0.5360 H     1 <1>   0.0800 
 34 H       12.8370     5.1430    -1.1790 H     1 <1>   0.0800 
 35 H       14.3160     3.8570    -0.5560 H     1 <1>   0.0800 
 36 H       13.8480     2.2970    -0.8290 H     1 <1>   0.0800 
 37 H       14.0370     2.8870     0.8060 H     1 <1>   0.0800 
 38 H       10.9050     1.4910     0.5110 H     1 <1>   0.0800 
 39 H       12.5290     1.3920     0.8100 H     1 <1>   0.0800 
 40 H       11.9290     1.4070    -0.8350 H     1 <1>   0.0800 
@<TRIPOS>BOND
  1   1   2  1   
  2   2   3  ar  
  3   2   4  ar  
  4   3   5  ar  
  5   3  23  1   
  6   4   6  ar  
  7   4  24  1   
  8   5   7  ar  
  9   5  25  1   
 10   6   7  ar  
 11   6  26  1   
 12   7   8  1   
 13   8   9  1   
 14   8  10  2   
 15   9  11  1   
 16   9  27  1   
 17  10  12  1   
 18  10  28  1   
 19  11  12  2   
 20  12  13  1   
 21  13  14  1   
 22  13  29  1   
 23  14  15  2   
 24  14  16  1   
 25  15  17  1   
 26  15  30  1   
 27  16  18  1   
 28  16  31  1   
 29  16  32  1   
 30  17  19  2   
 31  17  20  1   
 32  18  20  1   
 33  18  21  1   
 34  18  22  1   
 35  20  33  1   
 36  20  34  1   
 37  21  35  1   
 38  21  36  1   
 39  21  37  1   
 40  22  38  1   
 41  22  39  1   
 42  22  40  1   
@<TRIPOS>SUBSTRUCTURE
  1 ****  12 GROUP 4 **** **** 0

# MOE 2024.06 (io_trps.svl 2023.06)
