@<TRIPOS>MOLECULE
4-(4-Hydroxy-3-methoxy-phenyl)-2,7-dimethyl-5-oxo-1,4,5,6,7,8-hexahydro-quinolin
59 62 1 0 0 
SMALL
USER_CHARGES


@<TRIPOS>ATOM
  1 O        1.4850    -1.7570    -2.0890 O.2   1 <1>  -0.5700 
  2 C        1.1490    -2.2190    -1.0240 C.2   1 <1>   0.4950 
  3 C        2.0290    -2.4190     0.0770 C.2   1 <1>  -0.1240 
  4 C       -0.2950    -2.6760    -0.8870 C.3   1 <1>  -0.0990 
  5 C        1.6770    -3.0800     1.2060 C.2   1 <1>  -0.0380 
  6 C        3.4430    -1.8540    -0.0620 C.3   1 <1>   0.3400 
  7 C       -0.7460    -2.7720     0.5830 C.3   1 <1>  -0.0800 
  8 N        2.5840    -3.3420     2.2010 N.pl3 1 <1>  -0.6000 
  9 C        0.2580    -3.5850     1.4200 C.3   1 <1>  -0.0220 
 10 C        4.4100    -2.3060     1.0460 C.2   1 <1>  -0.1240 
 11 C        3.3770    -0.3260    -0.0590 C.ar  1 <1>  -0.1440 
 12 C       -2.1580    -3.3640     0.6840 C.3   1 <1>  -0.2400 
 13 C        3.9210    -3.0120     2.1030 C.2   1 <1>  -0.0380 
 14 C        5.7630    -1.8620     0.8520 C.2   1 <1>   0.6160 
 15 C        2.9210     0.3490     1.0650 C.ar  1 <1>  -0.1500 
 16 C        3.7710     0.4060    -1.1690 C.ar  1 <1>  -0.1500 
 17 C        4.7450    -3.5190     3.2770 C.3   1 <1>  -0.1020 
 18 O        6.4470    -1.4930     1.7870 O.2   1 <1>  -0.5700 
 19 N        6.3130    -1.8670    -0.4040 N.am  1 <1>  -0.5470 
 20 C        2.8520     1.7320     1.1040 C.ar  1 <1>   0.0830 
 21 C        3.7090     1.7870    -1.1530 C.ar  1 <1>  -0.1500 
 22 C        7.3460    -1.1590    -0.9700 C.ar  1 <1>   0.4270 
 23 O        2.3860     2.2480     2.2780 O.3   1 <1>  -0.3620 
 24 C        3.2500     2.4590    -0.0310 C.ar  1 <1>   0.0830 
 25 N        7.6220    -1.5650    -2.2000 N.ar  1 <1>  -0.6200 
 26 C        8.0130    -0.1080    -0.3420 C.ar  1 <1>  -0.1500 
 27 C        2.6580     3.5730     2.6720 C.3   1 <1>   0.0400 
 28 O        3.1980     3.8060    -0.1100 O.3   1 <1>  -0.5330 
 29 C        8.5970    -0.9260    -2.8240 C.ar  1 <1>   0.1670 
 30 C        9.0240     0.5520    -1.0000 C.ar  1 <1>  -0.1500 
 31 C        9.3180     0.1210    -2.2770 C.ar  1 <1>  -0.1500 
 32 C        8.9060    -1.4090    -4.2260 C.3   1 <1>  -0.0970 
 33 H       -0.3830    -3.6350    -1.3640 H     1 <1>   0.0800 
 34 H       -0.9260    -1.9830    -1.4140 H     1 <1>   0.0800 
 35 H        3.8190    -2.1970    -1.0090 H     1 <1>   0.0800 
 36 H       -0.7700    -1.7710     0.9840 H     1 <1>   0.0800 
 37 H        2.2680    -3.8290     3.0480 H     1 <1>   0.4000 
 38 H       -0.0040    -3.4930     2.4590 H     1 <1>   0.0800 
 39 H        0.2160    -4.6260     1.1520 H     1 <1>   0.0800 
 40 H       -2.1820    -4.3660     0.2940 H     1 <1>   0.0800 
 41 H       -2.8550    -2.7630     0.1270 H     1 <1>   0.0800 
 42 H       -2.4800    -3.3870     1.7110 H     1 <1>   0.0800 
 43 H        2.6150    -0.2030     1.9360 H     1 <1>   0.1500 
 44 H        4.1240    -0.0960    -2.0540 H     1 <1>   0.1500 
 45 H        4.5430    -2.9200     4.1460 H     1 <1>   0.0800 
 46 H        5.7980    -3.4830     3.0760 H     1 <1>   0.0800 
 47 H        4.4930    -4.5420     3.4910 H     1 <1>   0.0800 
 48 H        5.9160    -2.5170    -1.0730 H     1 <1>   0.3700 
 49 H        4.0170     2.3310    -2.0270 H     1 <1>   0.1500 
 50 H        7.7380     0.1920     0.6510 H     1 <1>   0.1500 
 51 H        2.4100     3.6710     3.7130 H     1 <1>   0.0800 
 52 H        2.0490     4.2400     2.0890 H     1 <1>   0.0800 
 53 H        3.7030     3.7760     2.5210 H     1 <1>   0.0800 
 54 H        3.4630     4.1350    -0.9860 H     1 <1>   0.4500 
 55 H        9.5590     1.3640    -0.5390 H     1 <1>   0.1500 
 56 H       10.1020     0.6000    -2.8360 H     1 <1>   0.1500 
 57 H        8.0290    -1.3120    -4.8400 H     1 <1>   0.0800 
 58 H        9.1920    -2.4440    -4.1930 H     1 <1>   0.0800 
 59 H        9.7040    -0.8410    -4.6660 H     1 <1>   0.0800 
@<TRIPOS>BOND
  1   1   2  2   
  2   2   3  1   
  3   2   4  1   
  4   3   5  2   
  5   3   6  1   
  6   4   7  1   
  7   4  33  1   
  8   4  34  1   
  9   5   8  1   
 10   5   9  1   
 11   6  10  1   
 12   6  11  1   
 13   6  35  1   
 14   7   9  1   
 15   7  12  1   
 16   7  36  1   
 17   8  13  1   
 18   8  37  1   
 19   9  38  1   
 20   9  39  1   
 21  10  13  2   
 22  10  14  1   
 23  11  15  ar  
 24  11  16  ar  
 25  12  40  1   
 26  12  41  1   
 27  12  42  1   
 28  13  17  1   
 29  14  18  2   
 30  14  19  am  
 31  15  20  ar  
 32  15  43  1   
 33  16  21  ar  
 34  16  44  1   
 35  17  45  1   
 36  17  46  1   
 37  17  47  1   
 38  19  22  1   
 39  19  48  1   
 40  20  23  1   
 41  20  24  ar  
 42  21  24  ar  
 43  21  49  1   
 44  22  25  ar  
 45  22  26  ar  
 46  23  27  1   
 47  24  28  1   
 48  25  29  ar  
 49  26  30  ar  
 50  26  50  1   
 51  27  51  1   
 52  27  52  1   
 53  27  53  1   
 54  28  54  1   
 55  29  31  ar  
 56  29  32  1   
 57  30  31  ar  
 58  30  55  1   
 59  31  56  1   
 60  32  57  1   
 61  32  58  1   
 62  32  59  1   
@<TRIPOS>SUBSTRUCTURE
  1 ****  11 GROUP 4 **** **** 0

# MOE 2024.06 (io_trps.svl 2023.06)
