@<TRIPOS>MOLECULE
7-[3-(3,4-Dimethyl-phenoxy)-2-hydroxy-propyl]-1,3-dimethyl-8-piperidin-1-yl-3,7-
64 67 1 0 0 
SMALL
USER_CHARGES


@<TRIPOS>ATOM
  1 O        1.3460     2.4880    -0.4980 O.2   1 <1>  -0.5730 
  2 C        2.5590     2.4780    -0.4790 C.2   1 <1>   0.6870 
  3 N        3.2650     3.6760    -0.4590 N.am  1 <1>  -0.4240 
  4 N        3.2410     1.2680    -0.4810 N.am  1 <1>  -0.4400 
  5 C        4.6540     3.6930    -0.4580 C.2   1 <1>   0.7000 
  6 C        2.4980     4.9620    -0.4660 C.3   1 <1>   0.0540 
  7 C        4.6210     1.3020    -0.4400 C.2   1 <1>   0.4220 
  8 C        2.4980    -0.0280    -0.4980 C.3   1 <1>   0.0540 
  9 O        5.2600     4.7550    -0.4990 O.2   1 <1>  -0.5730 
 10 C        5.3470     2.4370    -0.4190 C.2   1 <1>   0.2720 
 11 N        5.4730     0.2450    -0.4180 N.pl3 1 <1>  -0.7030 
 12 N        6.7030     2.0410    -0.3710 N.pl3 1 <1>  -0.7660 
 13 C        6.7270     0.6980    -0.3680 C.cat 1 <1>   1.0690 
 14 C        7.8130     3.0460    -0.3970 C.3   1 <1>   0.3490 
 15 N        7.7890    -0.1430    -0.3350 N.pl3 1 <1>  -0.5950 
 16 C        8.1080     3.6530     1.0000 C.3   1 <1>   0.1950 
 17 C        9.1070     0.1430     0.3080 C.3   1 <1>   0.1620 
 18 C        7.7130    -1.5490    -0.8390 C.3   1 <1>   0.1620 
 19 O        6.9440     4.1110     1.6160 O.3   1 <1>  -0.6830 
 20 C        9.1160     4.7990     0.9120 C.3   1 <1>   0.1140 
 21 C        9.3230    -0.8130     1.4870 C.3   1 <1>  -0.1660 
 22 C        7.8740    -2.5260     0.3280 C.3   1 <1>  -0.1660 
 23 O       10.2370     4.3320     0.1910 O.3   1 <1>  -0.3670 
 24 C        9.1960    -2.2830     1.0680 C.3   1 <1>  -0.1660 
 25 C       11.2890     5.1470    -0.0740 C.ar  1 <1>   0.0770 
 26 C       11.3810     6.4640     0.3650 C.ar  1 <1>  -0.1560 
 27 C       12.3170     4.6120    -0.8310 C.ar  1 <1>  -0.1560 
 28 C       12.4870     7.2390     0.0500 C.ar  1 <1>  -0.1490 
 29 C       13.4210     5.3800    -1.1480 C.ar  1 <1>  -0.1560 
 30 C       13.5150     6.6940    -0.7130 C.ar  1 <1>  -0.1490 
 31 C       12.5510     8.6760     0.5490 C.3   1 <1>  -0.1020 
 32 C       14.7480     7.5060    -1.0840 C.3   1 <1>  -0.1020 
 33 H        1.6230     4.8760     0.1560 H     1 <1>   0.0740 
 34 H        2.1880     5.1910    -1.4700 H     1 <1>   0.0740 
 35 H        3.0960     5.7740    -0.0890 H     1 <1>   0.0740 
 36 H        1.4990     0.1110    -0.8780 H     1 <1>   0.0740 
 37 H        2.4300    -0.4200     0.5020 H     1 <1>   0.0740 
 38 H        2.9970    -0.7390    -1.1310 H     1 <1>   0.0740 
 39 H        5.2240    -0.7370    -0.3660 H     1 <1>   0.4460 
 40 H        7.5590     3.8420    -1.0760 H     1 <1>   0.0740 
 41 H        8.7040     2.5940    -0.7940 H     1 <1>   0.0740 
 42 H        8.5160     2.9000     1.6490 H     1 <1>   0.0740 
 43 H        9.1600     1.1430     0.6830 H     1 <1>   0.0740 
 44 H        9.8940     0.0120    -0.4160 H     1 <1>   0.0740 
 45 H        8.5090    -1.7090    -1.5480 H     1 <1>   0.0740 
 46 H        6.7860    -1.7370    -1.3520 H     1 <1>   0.0740 
 47 H        6.5060     4.8040     1.0690 H     1 <1>   0.3960 
 48 H        9.4420     5.0930     1.8950 H     1 <1>   0.0740 
 49 H        8.7020     5.6380     0.3800 H     1 <1>   0.0740 
 50 H        8.6050    -0.5930     2.2590 H     1 <1>   0.0740 
 51 H       10.3020    -0.6460     1.9030 H     1 <1>   0.0740 
 52 H        7.8600    -3.5360    -0.0470 H     1 <1>   0.0740 
 53 H        7.0490    -2.4200     1.0110 H     1 <1>   0.0740 
 54 H        9.2500    -2.9170     1.9380 H     1 <1>   0.0740 
 55 H       10.0190    -2.5430     0.4240 H     1 <1>   0.0740 
 56 H       10.6000     6.9010     0.9560 H     1 <1>   0.1440 
 57 H       12.2540     3.5960    -1.1710 H     1 <1>   0.1440 
 58 H       14.2100     4.9480    -1.7370 H     1 <1>   0.1440 
 59 H       11.6830     8.9230     1.1330 H     1 <1>   0.0740 
 60 H       12.6000     9.3520    -0.2850 H     1 <1>   0.0740 
 61 H       13.4210     8.8130     1.1650 H     1 <1>   0.0740 
 62 H       15.2650     7.8170    -0.1940 H     1 <1>   0.0740 
 63 H       14.4610     8.3760    -1.6470 H     1 <1>   0.0740 
 64 H       15.4270     6.9260    -1.6820 H     1 <1>   0.0740 
@<TRIPOS>BOND
  1   1   2  2   
  2   2   3  am  
  3   2   4  am  
  4   3   5  am  
  5   3   6  1   
  6   4   7  1   
  7   4   8  1   
  8   5   9  2   
  9   5  10  1   
 10   6  33  1   
 11   6  34  1   
 12   6  35  1   
 13   7  10  2   
 14   7  11  1   
 15   8  36  1   
 16   8  37  1   
 17   8  38  1   
 18  10  12  1   
 19  11  13  ar  
 20  11  39  1   
 21  12  13  ar  
 22  12  14  1   
 23  13  15  ar  
 24  14  16  1   
 25  14  40  1   
 26  14  41  1   
 27  15  17  1   
 28  15  18  1   
 29  16  19  1   
 30  16  20  1   
 31  16  42  1   
 32  17  21  1   
 33  17  43  1   
 34  17  44  1   
 35  18  22  1   
 36  18  45  1   
 37  18  46  1   
 38  19  47  1   
 39  20  23  1   
 40  20  48  1   
 41  20  49  1   
 42  21  24  1   
 43  21  50  1   
 44  21  51  1   
 45  22  24  1   
 46  22  52  1   
 47  22  53  1   
 48  23  25  1   
 49  24  54  1   
 50  24  55  1   
 51  25  26  ar  
 52  25  27  ar  
 53  26  28  ar  
 54  26  56  1   
 55  27  29  ar  
 56  27  57  1   
 57  28  30  ar  
 58  28  31  1   
 59  29  30  ar  
 60  29  58  1   
 61  30  32  1   
 62  31  59  1   
 63  31  60  1   
 64  31  61  1   
 65  32  62  1   
 66  32  63  1   
 67  32  64  1   
@<TRIPOS>SUBSTRUCTURE
  1 ****  14 GROUP 4 **** **** 0

# MOE 2024.06 (io_trps.svl 2023.06)
