@<TRIPOS>MOLECULE
N-Benzyl-5-chloro-2-(2-morpholin-4-yl-2-oxo-ethoxy)-benzenesulfonamide
49 51 1 0 0 
SMALL
USER_CHARGES


@<TRIPOS>ATOM
  1 CL      -2.3090    -1.0300     1.8220 Cl    1 <1>  -0.1770 
  2 C       -2.9220     0.3620     0.9680 C.ar  1 <1>   0.1770 
  3 C       -3.0730     1.5570     1.6450 C.ar  1 <1>  -0.1500 
  4 C       -3.2480     0.2470    -0.3680 C.ar  1 <1>  -0.1500 
  5 C       -3.5630     2.6850     0.9940 C.ar  1 <1>  -0.0090 
  6 C       -3.7370     1.3560    -1.0310 C.ar  1 <1>  -0.1500 
  7 S       -3.7750     4.2320     1.9120 S.o2  1 <1>   1.4470 
  8 C       -3.9020     2.5580    -0.3540 C.ar  1 <1>   0.0830 
  9 O       -2.9100     4.2330     3.0680 O.2   1 <1>  -0.6500 
 10 O       -5.1840     4.4850     2.0990 O.2   1 <1>  -0.6500 
 11 N       -3.2180     5.4680     0.9340 N.am  1 <1>  -0.9140 
 12 O       -4.3580     3.6120    -1.0620 O.3   1 <1>  -0.3630 
 13 C       -1.7830     5.4670     0.7550 C.3   1 <1>   0.3390 
 14 C       -5.7620     3.8370    -1.1740 C.3   1 <1>   0.1810 
 15 C       -1.4100     6.6750    -0.0830 C.ar  1 <1>  -0.1430 
 16 C       -6.5380     2.5960    -1.6270 C.2   1 <1>   0.5690 
 17 C       -1.8540     6.7690    -1.3940 C.ar  1 <1>  -0.1500 
 18 C       -0.6260     7.6920     0.4440 C.ar  1 <1>  -0.1500 
 19 O       -6.5580     2.3680    -2.8150 O.2   1 <1>  -0.5700 
 20 N       -7.1850     1.7700    -0.7360 N.am  1 <1>  -0.6600 
 21 C       -1.5170     7.8640    -2.1710 C.ar  1 <1>  -0.1500 
 22 C       -0.2900     8.7870    -0.3320 C.ar  1 <1>  -0.1500 
 23 C       -7.2300     1.9290     0.7510 C.3   1 <1>   0.1400 
 24 C       -7.8990     0.5400    -1.1970 C.3   1 <1>   0.1400 
 25 C       -0.7340     8.8740    -1.6400 C.ar  1 <1>  -0.1500 
 26 C       -6.8140     0.6240     1.4510 C.3   1 <1>   0.1200 
 27 C       -7.4330    -0.6850    -0.3950 C.3   1 <1>   0.1200 
 28 O       -7.5680    -0.4550     0.9790 O.3   1 <1>  -0.5600 
 29 H       -2.8040     1.6040     2.6870 H     1 <1>   0.1500 
 30 H       -3.1190    -0.6930    -0.8770 H     1 <1>   0.1500 
 31 H       -3.9940     1.2970    -2.0760 H     1 <1>   0.1500 
 32 H       -3.4580     6.3280     1.4200 H     1 <1>   0.4200 
 33 H       -1.4760     4.5700     0.2440 H     1 <1>   0.0800 
 34 H       -1.2800     5.5130     1.7080 H     1 <1>   0.0800 
 35 H       -5.8940     4.6050    -1.9130 H     1 <1>   0.0800 
 36 H       -6.1280     4.2170    -0.2420 H     1 <1>   0.0800 
 37 H       -2.4680     5.9880    -1.8100 H     1 <1>   0.1500 
 38 H       -0.2720     7.6400     1.4590 H     1 <1>   0.1500 
 39 H       -1.8660     7.9290    -3.1860 H     1 <1>   0.1500 
 40 H        0.3190     9.5730     0.0800 H     1 <1>   0.1500 
 41 H       -8.2330     2.1800     1.0490 H     1 <1>   0.0800 
 42 H       -6.5840     2.7150     1.0830 H     1 <1>   0.0800 
 43 H       -7.7210     0.3630    -2.2430 H     1 <1>   0.0800 
 44 H       -8.9580     0.6720    -1.0600 H     1 <1>   0.0800 
 45 H       -0.4720     9.7250    -2.2430 H     1 <1>   0.1500 
 46 H       -6.9800     0.7020     2.5110 H     1 <1>   0.0800 
 47 H       -5.7730     0.4150     1.2790 H     1 <1>   0.0800 
 48 H       -6.4020    -0.9080    -0.6100 H     1 <1>   0.0800 
 49 H       -8.0320    -1.5420    -0.6450 H     1 <1>   0.0800 
@<TRIPOS>BOND
  1   1   2  1   
  2   2   3  ar  
  3   2   4  ar  
  4   3   5  ar  
  5   3  29  1   
  6   4   6  ar  
  7   4  30  1   
  8   5   7  1   
  9   5   8  ar  
 10   6   8  ar  
 11   6  31  1   
 12   7   9  2   
 13   7  10  2   
 14   7  11  am  
 15   8  12  1   
 16  11  13  1   
 17  11  32  1   
 18  12  14  1   
 19  13  15  1   
 20  13  33  1   
 21  13  34  1   
 22  14  16  1   
 23  14  35  1   
 24  14  36  1   
 25  15  17  ar  
 26  15  18  ar  
 27  16  19  2   
 28  16  20  am  
 29  17  21  ar  
 30  17  37  1   
 31  18  22  ar  
 32  18  38  1   
 33  20  23  1   
 34  20  24  1   
 35  21  25  ar  
 36  21  39  1   
 37  22  25  ar  
 38  22  40  1   
 39  23  26  1   
 40  23  41  1   
 41  23  42  1   
 42  24  27  1   
 43  24  43  1   
 44  24  44  1   
 45  25  45  1   
 46  26  28  1   
 47  26  46  1   
 48  26  47  1   
 49  27  28  1   
 50  27  48  1   
 51  27  49  1   
@<TRIPOS>SUBSTRUCTURE
  1 ****   8 GROUP 4 **** **** 0

# MOE 2024.06 (io_trps.svl 2023.06)
