@<TRIPOS>MOLECULE
3-[1-(4-Chloro-benzenesulfonyl)-piperidin-4-ylamino]-pyrrolidine-2,5-dione
42 44 1 0 0 
SMALL
USER_CHARGES


@<TRIPOS>ATOM
  1 CL      -1.4500    -0.8630     3.4370 Cl    1 <1>  -0.1770 
  2 C       -2.3710    -1.4540     2.0790 C.ar  1 <1>   0.1770 
  3 C       -2.5830    -0.6310     0.9910 C.ar  1 <1>  -0.1500 
  4 C       -2.8790    -2.7380     2.1090 C.ar  1 <1>  -0.1500 
  5 C       -3.3180    -1.1050    -0.0840 C.ar  1 <1>  -0.1500 
  6 C       -3.6110    -3.2000     1.0280 C.ar  1 <1>  -0.1500 
  7 C       -3.8470    -2.3940    -0.0830 C.ar  1 <1>  -0.0090 
  8 S       -4.8120    -3.0140    -1.4910 S.o2  1 <1>   1.4470 
  9 O       -4.0900    -4.1010    -2.1140 O.2   1 <1>  -0.6500 
 10 O       -5.2780    -1.9100    -2.3020 O.2   1 <1>  -0.6500 
 11 N       -6.1860    -3.6800    -0.7510 N.am  1 <1>  -0.8490 
 12 C       -6.8930    -4.5880    -1.6580 C.3   1 <1>   0.1960 
 13 C       -7.0840    -2.6450    -0.2300 C.3   1 <1>   0.1960 
 14 C       -8.0330    -5.2890    -0.9180 C.3   1 <1>  -0.1600 
 15 C       -8.2190    -3.2870     0.5690 C.3   1 <1>  -0.1600 
 16 C       -8.9950    -4.2760    -0.3040 C.3   1 <1>   0.1900 
 17 N       -9.9580    -5.0100     0.5010 N.3   1 <1>  -0.9000 
 18 C      -11.1920    -4.2650     0.8270 C.3   1 <1>   0.2510 
 19 C      -11.9090    -4.8050     2.0700 C.2   1 <1>   0.5690 
 20 C      -12.2360    -4.4570    -0.2890 C.3   1 <1>  -0.0990 
 21 O      -11.4460    -4.8260     3.1810 O.2   1 <1>  -0.5700 
 22 N      -13.1400    -5.2370     1.7430 N.am  1 <1>  -0.4900 
 23 C      -13.4100    -5.0750     0.4360 C.2   1 <1>   0.5690 
 24 O      -14.4530    -5.3610    -0.0850 O.2   1 <1>  -0.5700 
 25 H       -2.1760     0.3650     0.9870 H     1 <1>   0.1500 
 26 H       -2.7010    -3.3640     2.9650 H     1 <1>   0.1500 
 27 H       -3.4830    -0.4660    -0.9360 H     1 <1>   0.1500 
 28 H       -4.0090    -4.2020     1.0420 H     1 <1>   0.1500 
 29 H       -6.2140    -5.3400    -2.0270 H     1 <1>   0.0800 
 30 H       -7.2760    -4.0390    -2.5040 H     1 <1>   0.0800 
 31 H       -7.4900    -2.0640    -1.0430 H     1 <1>   0.0800 
 32 H       -6.5360    -1.9800     0.4170 H     1 <1>   0.0800 
 33 H       -7.6100    -5.9120    -0.1490 H     1 <1>   0.0800 
 34 H       -8.5680    -5.9180    -1.6060 H     1 <1>   0.0800 
 35 H       -8.8680    -2.5090     0.9230 H     1 <1>   0.0800 
 36 H       -7.7960    -3.7930     1.4190 H     1 <1>   0.0800 
 37 H       -9.5010    -3.7520    -1.1000 H     1 <1>   0.0800 
 38 H       -9.4980    -5.2660     1.3870 H     1 <1>   0.3600 
 39 H      -10.9870    -3.2210     0.9860 H     1 <1>   0.0800 
 40 H      -11.8930    -5.1260    -1.0570 H     1 <1>   0.0800 
 41 H      -12.5300    -3.5170    -0.7150 H     1 <1>   0.0800 
 42 H      -13.7880    -5.6500     2.4060 H     1 <1>   0.3700 
@<TRIPOS>BOND
  1   1   2  1   
  2   2   3  ar  
  3   2   4  ar  
  4   3   5  ar  
  5   3  25  1   
  6   4   6  ar  
  7   4  26  1   
  8   5   7  ar  
  9   5  27  1   
 10   6   7  ar  
 11   6  28  1   
 12   7   8  1   
 13   8   9  2   
 14   8  10  2   
 15   8  11  am  
 16  11  12  1   
 17  11  13  1   
 18  12  14  1   
 19  12  29  1   
 20  12  30  1   
 21  13  15  1   
 22  13  31  1   
 23  13  32  1   
 24  14  16  1   
 25  14  33  1   
 26  14  34  1   
 27  15  16  1   
 28  15  35  1   
 29  15  36  1   
 30  16  17  1   
 31  16  37  1   
 32  17  18  1   
 33  17  38  1   
 34  18  19  1   
 35  18  20  1   
 36  18  39  1   
 37  19  21  2   
 38  19  22  am  
 39  20  23  1   
 40  20  40  1   
 41  20  41  1   
 42  22  23  am  
 43  22  42  1   
 44  23  24  2   
@<TRIPOS>SUBSTRUCTURE
  1 ****  15 GROUP 4 **** **** 0

# MOE 2024.06 (io_trps.svl 2023.06)
