@<TRIPOS>MOLECULE
1-(Furan-2-carbonyl)-piperidine-4-carboxylic acid (2,4-dimethoxy-phenyl)-amide
48 50 1 0 0 
SMALL
USER_CHARGES


@<TRIPOS>ATOM
  1 O       -0.2610     1.9000     2.3220 O.2   1 <1>  -0.5700 
  2 C       -0.4270     2.3040     1.1830 C.2   1 <1>   0.7150 
  3 N        0.6810     2.7260     0.4650 N.am  1 <1>  -0.6600 
  4 C       -1.7550     2.3050     0.6040 C.2   1 <1>   0.0550 
  5 C        0.5920     3.6360    -0.7120 C.3   1 <1>   0.1400 
  6 C        2.0670     2.4470     0.9370 C.3   1 <1>   0.1400 
  7 O       -2.8080     2.7290     1.3000 O.3   1 <1>  -0.2800 
  8 C       -2.1890     1.9180    -0.6290 C.2   1 <1>  -0.1500 
  9 C        1.3150     4.9510    -0.4080 C.3   1 <1>  -0.1600 
 10 C        2.7860     3.7610     1.2530 C.3   1 <1>  -0.1600 
 11 C       -3.8830     2.6260     0.5530 C.2   1 <1>  -0.0100 
 12 C       -3.5680     2.1280    -0.6610 C.2   1 <1>  -0.1500 
 13 C        2.7700     4.7170     0.0470 C.3   1 <1>  -0.0190 
 14 C        3.5090     6.0170     0.3680 C.2   1 <1>   0.5690 
 15 O        2.8890     6.9690     0.7760 O.2   1 <1>  -0.5700 
 16 N        4.8620     6.0220     0.1750 N.am  1 <1>  -0.5470 
 17 C        5.8670     6.9940     0.3510 C.ar  1 <1>   0.1170 
 18 C        7.1850     6.6300     0.0530 C.ar  1 <1>   0.0820 
 19 C        5.6140     8.2850     0.8000 C.ar  1 <1>  -0.1500 
 20 O        7.3890     5.3490    -0.3860 O.3   1 <1>  -0.3630 
 21 C        8.2200     7.5480     0.2060 C.ar  1 <1>  -0.1500 
 22 C        6.6440     9.1940     0.9510 C.ar  1 <1>  -0.1500 
 23 C        8.6780     4.8820    -0.7210 C.3   1 <1>   0.0400 
 24 C        7.9480     8.8360     0.6570 C.ar  1 <1>   0.0820 
 25 O        8.8960     9.7950     0.8350 O.3   1 <1>  -0.3620 
 26 C       10.2560     9.5420     0.5650 C.3   1 <1>   0.0400 
 27 H       -0.4330     3.8580    -0.9530 H     1 <1>   0.0800 
 28 H        1.0430     3.1550    -1.5630 H     1 <1>   0.0800 
 29 H        2.5960     1.9150     0.1660 H     1 <1>   0.0800 
 30 H        2.0550     1.8240     1.8160 H     1 <1>   0.0800 
 31 H       -1.6020     1.5160    -1.4350 H     1 <1>   0.1500 
 32 H        0.7720     5.4710     0.3630 H     1 <1>   0.0800 
 33 H        1.3070     5.5740    -1.2850 H     1 <1>   0.0800 
 34 H        3.8000     3.5470     1.5390 H     1 <1>   0.0800 
 35 H        2.3020     4.2280     2.0940 H     1 <1>   0.0800 
 36 H       -4.8320     2.9260     0.9620 H     1 <1>   0.1500 
 37 H       -4.2210     1.9240    -1.4920 H     1 <1>   0.1500 
 38 H        3.2890     4.2420    -0.7660 H     1 <1>   0.0800 
 39 H        5.2640     5.1460    -0.1590 H     1 <1>   0.3700 
 40 H        4.6130     8.5940     1.0370 H     1 <1>   0.1500 
 41 H        9.2270     7.2700    -0.0210 H     1 <1>   0.1500 
 42 H        6.4400    10.1910     1.3000 H     1 <1>   0.1500 
 43 H        8.5920     3.8590    -1.0410 H     1 <1>   0.0800 
 44 H        9.3080     4.9400     0.1480 H     1 <1>   0.0800 
 45 H        9.0700     5.4820    -1.5240 H     1 <1>   0.0800 
 46 H       10.8100    10.4390     0.7770 H     1 <1>   0.0800 
 47 H       10.3640     9.2830    -0.4730 H     1 <1>   0.0800 
 48 H       10.5960     8.7440     1.2020 H     1 <1>   0.0800 
@<TRIPOS>BOND
  1   1   2  2   
  2   2   3  am  
  3   2   4  1   
  4   3   5  1   
  5   3   6  1   
  6   4   7  1   
  7   4   8  2   
  8   5   9  1   
  9   5  27  1   
 10   5  28  1   
 11   6  10  1   
 12   6  29  1   
 13   6  30  1   
 14   7  11  1   
 15   8  12  1   
 16   8  31  1   
 17   9  13  1   
 18   9  32  1   
 19   9  33  1   
 20  10  13  1   
 21  10  34  1   
 22  10  35  1   
 23  11  12  2   
 24  11  36  1   
 25  12  37  1   
 26  13  14  1   
 27  13  38  1   
 28  14  15  2   
 29  14  16  am  
 30  16  17  1   
 31  16  39  1   
 32  17  18  ar  
 33  17  19  ar  
 34  18  20  1   
 35  18  21  ar  
 36  19  22  ar  
 37  19  40  1   
 38  20  23  1   
 39  21  24  ar  
 40  21  41  1   
 41  22  24  ar  
 42  22  42  1   
 43  23  43  1   
 44  23  44  1   
 45  23  45  1   
 46  24  25  1   
 47  25  26  1   
 48  26  46  1   
 49  26  47  1   
 50  26  48  1   
@<TRIPOS>SUBSTRUCTURE
  1 ****  13 GROUP 4 **** **** 0

# MOE 2024.06 (io_trps.svl 2023.06)
