@<TRIPOS>MOLECULE
3-Oxo-3,4-dihydro-2H-benzo[1,4]oxazine-6-sulfonic acid diethylamide
35 36 1 0 0 
SMALL
USER_CHARGES


@<TRIPOS>ATOM
  1 S        0.2030    -0.0500    -1.5490 S.o2  1 <1>   1.4470 
  2 O       -0.0580     0.9930    -2.5190 O.2   1 <1>  -0.6500 
  3 O        0.8640    -1.2640    -1.9770 O.2   1 <1>  -0.6500 
  4 N        1.1320     0.6520    -0.3140 N.am  1 <1>  -0.8490 
  5 C       -1.3390    -0.4960    -0.7030 C.ar  1 <1>  -0.0090 
  6 C        2.5650     0.6370    -0.6210 C.3   1 <1>   0.1960 
  7 C        0.6560     1.9890     0.0430 C.3   1 <1>   0.1960 
  8 C       -2.5760    -0.2120    -1.2700 C.ar  1 <1>  -0.1500 
  9 C       -1.3170    -1.1400     0.5300 C.ar  1 <1>  -0.1500 
 10 C        3.2150    -0.5080     0.1480 C.3   1 <1>  -0.2400 
 11 C        1.0680     2.3200     1.4760 C.3   1 <1>  -0.2400 
 12 C       -3.7600    -0.5500    -0.6330 C.ar  1 <1>   0.1170 
 13 C       -2.4890    -1.4840     1.1830 C.ar  1 <1>  -0.1500 
 14 N       -5.0020    -0.2530    -1.1950 N.am  1 <1>  -0.5470 
 15 C       -3.7100    -1.1930     0.6060 C.ar  1 <1>   0.0830 
 16 C       -6.1650    -0.6660    -0.6360 C.2   1 <1>   0.5690 
 17 O       -4.8430    -1.5350     1.2790 O.3   1 <1>  -0.3630 
 18 O       -7.2280    -0.3490    -1.1070 O.2   1 <1>  -0.5700 
 19 C       -6.0990    -1.5730     0.5920 C.3   1 <1>   0.1810 
 20 H        3.0340     1.5590    -0.3240 H     1 <1>   0.0800 
 21 H        2.7300     0.5170    -1.6810 H     1 <1>   0.0800 
 22 H       -0.4200     2.0190    -0.0060 H     1 <1>   0.0800 
 23 H        1.0370     2.7220    -0.6500 H     1 <1>   0.0800 
 24 H       -2.6140     0.2820    -2.2260 H     1 <1>   0.1500 
 25 H       -0.3670    -1.3720     0.9840 H     1 <1>   0.1500 
 26 H        3.0580    -0.3820     1.2030 H     1 <1>   0.0800 
 27 H        4.2720    -0.5190    -0.0450 H     1 <1>   0.0800 
 28 H        2.8040    -1.4520    -0.1640 H     1 <1>   0.0800 
 29 H        0.6860     1.5730     2.1490 H     1 <1>   0.0800 
 30 H        0.6580     3.2720     1.7570 H     1 <1>   0.0800 
 31 H        2.1370     2.3730     1.5740 H     1 <1>   0.0800 
 32 H       -2.4580    -1.9780     2.1390 H     1 <1>   0.1500 
 33 H       -5.0790     0.3230    -2.0330 H     1 <1>   0.3700 
 34 H       -6.2700    -2.5880     0.2860 H     1 <1>   0.0800 
 35 H       -6.8620    -1.2870     1.2920 H     1 <1>   0.0800 
@<TRIPOS>BOND
  1   1   2  2   
  2   1   3  2   
  3   1   4  am  
  4   1   5  1   
  5   4   6  1   
  6   4   7  1   
  7   5   8  ar  
  8   5   9  ar  
  9   6  10  1   
 10   6  20  1   
 11   6  21  1   
 12   7  11  1   
 13   7  22  1   
 14   7  23  1   
 15   8  12  ar  
 16   8  24  1   
 17   9  13  ar  
 18   9  25  1   
 19  10  26  1   
 20  10  27  1   
 21  10  28  1   
 22  11  29  1   
 23  11  30  1   
 24  11  31  1   
 25  12  14  1   
 26  12  15  ar  
 27  13  15  ar  
 28  13  32  1   
 29  14  16  am  
 30  14  33  1   
 31  15  17  1   
 32  16  18  2   
 33  16  19  1   
 34  17  19  1   
 35  19  34  1   
 36  19  35  1   
@<TRIPOS>SUBSTRUCTURE
  1 ****   5 GROUP 4 **** **** 0

# MOE 2024.06 (io_trps.svl 2023.06)
