@<TRIPOS>MOLECULE
N-[3-(4-Chloro-phenyl)-[1,2,4]oxadiazol-5-ylmethyl]-N-isopropyl-2,4,5-trimethoxy
55 57 1 0 0 
SMALL
USER_CHARGES


@<TRIPOS>ATOM
  1 CL      -1.6420     2.6610    -0.3370 Cl    1 <1>  -0.1770 
  2 C       -3.2510     2.0640    -0.0280 C.ar  1 <1>   0.1770 
  3 C       -3.8170     1.1520    -0.8970 C.ar  1 <1>  -0.1500 
  4 C       -3.9410     2.5090     1.0820 C.ar  1 <1>  -0.1500 
  5 C       -5.0950     0.6820    -0.6470 C.ar  1 <1>  -0.1500 
  6 C       -5.2180     2.0320     1.3210 C.ar  1 <1>  -0.1500 
  7 C       -5.8280     1.1080     0.4650 C.ar  1 <1>   0.0540 
  8 C       -7.1710     0.6170     0.7270 C.2   1 <1>   0.4620 
  9 N       -7.9110     0.9540     1.7220 N.2   1 <1>  -0.4100 
 10 N       -7.7890    -0.2570    -0.0740 N.2   1 <1>  -0.5650 
 11 O       -9.0370     0.3200     1.6160 O.3   1 <1>  -0.0190 
 12 C       -8.9050    -0.3830     0.5220 C.2   1 <1>   0.2980 
 13 C      -10.0670    -1.2550     0.0730 C.3   1 <1>   0.3200 
 14 N      -11.3150    -0.4590    -0.2080 N.am  1 <1>  -0.6600 
 15 C      -12.3620    -0.5040     0.6920 C.2   1 <1>   0.5440 
 16 C      -11.3590     0.4260    -1.4130 C.3   1 <1>   0.2200 
 17 O      -12.3060    -1.2880     1.6220 O.2   1 <1>  -0.5700 
 18 C      -13.5100     0.3650     0.5880 C.ar  1 <1>   0.0860 
 19 C      -10.6860    -0.2110    -2.6300 C.3   1 <1>  -0.2400 
 20 C      -10.7470     1.7910    -1.0960 C.3   1 <1>  -0.2400 
 21 C      -14.5660     0.1210    -0.2950 C.ar  1 <1>   0.0830 
 22 C      -13.5860     1.5100     1.3780 C.ar  1 <1>  -0.1500 
 23 O      -14.5750    -0.9640    -1.0990 O.3   1 <1>  -0.3630 
 24 C      -15.6310     0.9990    -0.4010 C.ar  1 <1>  -0.1500 
 25 C      -14.6400     2.3980     1.2830 C.ar  1 <1>   0.0830 
 26 C      -14.8530    -2.2100    -0.4970 C.3   1 <1>   0.0400 
 27 C      -15.6920     2.1440     0.3870 C.ar  1 <1>   0.0830 
 28 O      -14.5650     3.4810     2.1070 O.3   1 <1>  -0.3630 
 29 O      -16.7460     3.0020     0.3180 O.3   1 <1>  -0.3630 
 30 C      -14.9320     4.7570     1.6280 C.3   1 <1>   0.0400 
 31 C      -17.8890     2.7330    -0.4640 C.3   1 <1>   0.0400 
 32 H       -3.2630     0.8180    -1.7560 H     1 <1>   0.1500 
 33 H       -3.4820     3.2190     1.7470 H     1 <1>   0.1500 
 34 H       -5.5320    -0.0290    -1.3280 H     1 <1>   0.1500 
 35 H       -5.7530     2.3810     2.1880 H     1 <1>   0.1500 
 36 H      -10.2430    -1.9840     0.8420 H     1 <1>   0.0800 
 37 H       -9.7790    -1.8050    -0.8030 H     1 <1>   0.0800 
 38 H      -12.3870     0.5860    -1.6860 H     1 <1>   0.0800 
 39 H       -9.6210    -0.2810    -2.4990 H     1 <1>   0.0800 
 40 H      -10.8690     0.3960    -3.4980 H     1 <1>   0.0800 
 41 H      -11.0990    -1.1870    -2.8130 H     1 <1>   0.0800 
 42 H       -9.6850     1.7220    -0.9570 H     1 <1>   0.0800 
 43 H      -11.1940     2.2080    -0.2120 H     1 <1>   0.0800 
 44 H      -10.9290     2.4650    -1.9130 H     1 <1>   0.0800 
 45 H      -12.7960     1.7120     2.0790 H     1 <1>   0.1500 
 46 H      -16.4000     0.7600    -1.1080 H     1 <1>   0.1500 
 47 H      -14.9960    -2.9360    -1.2770 H     1 <1>   0.0800 
 48 H      -15.7480    -2.1230     0.0940 H     1 <1>   0.0800 
 49 H      -14.0250    -2.5030     0.1220 H     1 <1>   0.0800 
 50 H      -14.4320     5.4960     2.2270 H     1 <1>   0.0800 
 51 H      -15.9960     4.8720     1.7260 H     1 <1>   0.0800 
 52 H      -14.6320     4.8490     0.5990 H     1 <1>   0.0800 
 53 H      -18.5950     3.5290    -0.3080 H     1 <1>   0.0800 
 54 H      -18.3180     1.7990    -0.1460 H     1 <1>   0.0800 
 55 H      -17.6050     2.6960    -1.5000 H     1 <1>   0.0800 
@<TRIPOS>BOND
  1   1   2  1   
  2   2   3  ar  
  3   2   4  ar  
  4   3   5  ar  
  5   3  32  1   
  6   4   6  ar  
  7   4  33  1   
  8   5   7  ar  
  9   5  34  1   
 10   6   7  ar  
 11   6  35  1   
 12   7   8  1   
 13   8   9  2   
 14   8  10  1   
 15   9  11  1   
 16  10  12  2   
 17  11  12  1   
 18  12  13  1   
 19  13  14  1   
 20  13  36  1   
 21  13  37  1   
 22  14  15  am  
 23  14  16  1   
 24  15  17  2   
 25  15  18  1   
 26  16  19  1   
 27  16  20  1   
 28  16  38  1   
 29  18  21  ar  
 30  18  22  ar  
 31  19  39  1   
 32  19  40  1   
 33  19  41  1   
 34  20  42  1   
 35  20  43  1   
 36  20  44  1   
 37  21  23  1   
 38  21  24  ar  
 39  22  25  ar  
 40  22  45  1   
 41  23  26  1   
 42  24  27  ar  
 43  24  46  1   
 44  25  27  ar  
 45  25  28  1   
 46  26  47  1   
 47  26  48  1   
 48  26  49  1   
 49  27  29  1   
 50  28  30  1   
 51  29  31  1   
 52  30  50  1   
 53  30  51  1   
 54  30  52  1   
 55  31  53  1   
 56  31  54  1   
 57  31  55  1   
@<TRIPOS>SUBSTRUCTURE
  1 ****  20 GROUP 4 **** **** 0

# MOE 2024.06 (io_trps.svl 2023.06)
