@<TRIPOS>MOLECULE
2-Allylsulfanyl-1-methyl-5-(3,4,5-trimethoxy-phenyl)-5,8-dihydro-1H,6H-pyrido[2,
52 54 1 0 0 
SMALL
USER_CHARGES


@<TRIPOS>ATOM
  1 S        0.6320     0.4310    -1.6750 S.3   1 <1>  -0.3710 
  2 C        1.6290     1.4990    -0.6480 C.2   1 <1>   0.6410 
  3 C       -1.1030     1.0460    -1.4700 C.3   1 <1>   0.2080 
  4 N        1.0530     2.5160    -0.1310 N.2   1 <1>  -0.6610 
  5 N        2.9570     1.1510    -0.4990 N.pl3 1 <1>  -0.5190 
  6 C       -1.7550     0.4460    -0.2280 C.2   1 <1>  -0.2880 
  7 C        1.8220     3.3390     0.6300 C.2   1 <1>   0.7670 
  8 C        3.7610     1.9980     0.2290 C.2   1 <1>   0.2090 
  9 C        3.4660    -0.1220    -1.1000 C.3   1 <1>   0.1290 
 10 C       -1.2680    -0.4840     0.6020 C.2   1 <1>  -0.3000 
 11 O        1.2640     4.2850     1.1740 O.2   1 <1>  -0.5700 
 12 C        3.2030     3.1000     0.7940 C.2   1 <1>  -0.1240 
 13 N        5.1070     1.7410     0.3750 N.am  1 <1>  -0.5390 
 14 C        4.0540     4.1010     1.5720 C.3   1 <1>   0.2020 
 15 C        5.9370     2.4250     1.2020 C.2   1 <1>   0.5690 
 16 C        4.3600     5.3090     0.6860 C.ar  1 <1>  -0.1430 
 17 C        5.3450     3.4680     2.1260 C.3   1 <1>  -0.0990 
 18 O        7.1140     2.1870     1.2250 O.2   1 <1>  -0.5700 
 19 C        5.0840     5.1870    -0.4930 C.ar  1 <1>  -0.1500 
 20 C        3.8920     6.5620     1.0520 C.ar  1 <1>  -0.1500 
 21 C        5.3490     6.2860    -1.2950 C.ar  1 <1>   0.0830 
 22 C        4.1490     7.6720     0.2670 C.ar  1 <1>   0.0830 
 23 O        6.0560     6.0270    -2.4300 O.3   1 <1>  -0.3630 
 24 C        4.9010     7.5520    -0.9040 C.ar  1 <1>   0.0830 
 25 O        3.6530     8.8620     0.6870 O.3   1 <1>  -0.3630 
 26 C        5.7170     6.6860    -3.6310 C.3   1 <1>   0.0400 
 27 O        5.2040     8.6630    -1.6310 O.3   1 <1>  -0.3630 
 28 C        2.5730     9.3730    -0.0610 C.3   1 <1>   0.0400 
 29 C        6.2410     9.4560    -1.1020 C.3   1 <1>   0.0400 
 30 H       -1.6400     0.7550    -2.3540 H     1 <1>   0.0800 
 31 H       -1.0700     2.1200    -1.4170 H     1 <1>   0.0800 
 32 H       -2.7290     0.8760    -0.0640 H     1 <1>   0.1500 
 33 H        3.4830    -0.0330    -2.1720 H     1 <1>   0.0800 
 34 H        2.8210    -0.9390    -0.8250 H     1 <1>   0.0800 
 35 H        4.4540    -0.3620    -0.7560 H     1 <1>   0.0800 
 36 H       -0.3080    -0.9600     0.5030 H     1 <1>   0.1500 
 37 H       -1.8010    -0.8510     1.4620 H     1 <1>   0.1500 
 38 H        5.5660     1.0360    -0.1970 H     1 <1>   0.3700 
 39 H        3.4880     4.4400     2.4230 H     1 <1>   0.0800 
 40 H        5.1230     2.9790     3.0560 H     1 <1>   0.0800 
 41 H        6.0760     4.2320     2.3220 H     1 <1>   0.0800 
 42 H        5.4540     4.2340    -0.8190 H     1 <1>   0.1500 
 43 H        3.3120     6.6950     1.9480 H     1 <1>   0.1500 
 44 H        6.0670     6.0870    -4.4520 H     1 <1>   0.0800 
 45 H        6.2010     7.6450    -3.6500 H     1 <1>   0.0800 
 46 H        4.6490     6.7980    -3.6840 H     1 <1>   0.0800 
 47 H        2.2340    10.2770     0.4110 H     1 <1>   0.0800 
 48 H        1.7830     8.6420    -0.0720 H     1 <1>   0.0800 
 49 H        2.9030     9.5820    -1.0620 H     1 <1>   0.0800 
 50 H        6.4170    10.2750    -1.7750 H     1 <1>   0.0800 
 51 H        7.1260     8.8520    -1.0120 H     1 <1>   0.0800 
 52 H        5.9420     9.8290    -0.1380 H     1 <1>   0.0800 
@<TRIPOS>BOND
  1   1   2  1   
  2   1   3  1   
  3   2   4  2   
  4   2   5  1   
  5   3   6  1   
  6   3  30  1   
  7   3  31  1   
  8   4   7  1   
  9   5   8  1   
 10   5   9  1   
 11   6  10  2   
 12   6  32  1   
 13   7  11  2   
 14   7  12  1   
 15   8  12  2   
 16   8  13  1   
 17   9  33  1   
 18   9  34  1   
 19   9  35  1   
 20  10  36  1   
 21  10  37  1   
 22  12  14  1   
 23  13  15  am  
 24  13  38  1   
 25  14  16  1   
 26  14  17  1   
 27  14  39  1   
 28  15  17  1   
 29  15  18  2   
 30  16  19  ar  
 31  16  20  ar  
 32  17  40  1   
 33  17  41  1   
 34  19  21  ar  
 35  19  42  1   
 36  20  22  ar  
 37  20  43  1   
 38  21  23  1   
 39  21  24  ar  
 40  22  24  ar  
 41  22  25  1   
 42  23  26  1   
 43  24  27  1   
 44  25  28  1   
 45  26  44  1   
 46  26  45  1   
 47  26  46  1   
 48  27  29  1   
 49  28  47  1   
 50  28  48  1   
 51  28  49  1   
 52  29  50  1   
 53  29  51  1   
 54  29  52  1   
@<TRIPOS>SUBSTRUCTURE
  1 ****  12 GROUP 4 **** **** 0

# MOE 2024.06 (io_trps.svl 2023.06)
