@<TRIPOS>MOLECULE
Morpholine-4-carboxylic acid [3-(4-chloro-phenyl)-[1,2,4]oxadiazol-5-ylmethyl]-a
37 39 1 0 0 
SMALL
USER_CHARGES


@<TRIPOS>ATOM
  1 CL      -1.0760     1.3780    -1.2340 Cl    1 <1>  -0.1770 
  2 C       -2.7170     1.1290    -0.6980 C.ar  1 <1>   0.1770 
  3 C       -3.2620     1.9790     0.2440 C.ar  1 <1>  -0.1500 
  4 C       -3.4530     0.0840    -1.2210 C.ar  1 <1>  -0.1500 
  5 C       -4.5640     1.7760     0.6660 C.ar  1 <1>  -0.1500 
  6 C       -4.7550    -0.1090    -0.7920 C.ar  1 <1>  -0.1500 
  7 C       -5.3440     0.7300     0.1610 C.ar  1 <1>   0.0540 
  8 C       -6.7120     0.5290     0.6110 C.2   1 <1>   0.4620 
  9 N       -7.3320     1.2530     1.4750 N.2   1 <1>  -0.4100 
 10 N       -7.4870    -0.4600     0.1520 N.2   1 <1>  -0.5650 
 11 O       -8.5260     0.7700     1.6190 O.3   1 <1>  -0.0190 
 12 C       -8.5570    -0.2500     0.8030 C.2   1 <1>   0.2980 
 13 C       -9.8400    -1.0600     0.7050 C.3   1 <1>   0.3200 
 14 N      -10.8990    -0.2960     0.0010 N.am  1 <1>  -0.7300 
 15 C      -12.2160    -0.4240     0.2620 C.2   1 <1>   0.6900 
 16 O      -12.5840    -1.2220     1.1020 O.2   1 <1>  -0.5700 
 17 N      -13.1120     0.3350    -0.4370 N.am  1 <1>  -0.6600 
 18 C      -14.5790     0.0580    -0.3740 C.3   1 <1>   0.1400 
 19 C      -12.7960     1.6770    -1.0120 C.3   1 <1>   0.1400 
 20 C      -15.3250     1.2400     0.2640 C.3   1 <1>   0.1200 
 21 C      -13.6510     2.7660    -0.3410 C.3   1 <1>   0.1200 
 22 O      -15.0090     2.4350    -0.3950 O.3   1 <1>  -0.5600 
 23 H       -2.6720     2.7860     0.6400 H     1 <1>   0.1500 
 24 H       -3.0100    -0.5660    -1.9540 H     1 <1>   0.1500 
 25 H       -4.9850     2.4410     1.4010 H     1 <1>   0.1500 
 26 H       -5.3240    -0.9250    -1.2030 H     1 <1>   0.1500 
 27 H      -10.1700    -1.3210     1.6970 H     1 <1>   0.0800 
 28 H       -9.6460    -1.9690     0.1640 H     1 <1>   0.0800 
 29 H      -10.6270     0.1630    -0.8640 H     1 <1>   0.3700 
 30 H      -14.7750    -0.8360     0.1920 H     1 <1>   0.0800 
 31 H      -14.9510    -0.0980    -1.3710 H     1 <1>   0.0800 
 32 H      -13.0020     1.6670    -2.0680 H     1 <1>   0.0800 
 33 H      -11.7580     1.9200    -0.8740 H     1 <1>   0.0800 
 34 H      -15.0610     1.3350     1.3030 H     1 <1>   0.0800 
 35 H      -16.3880     1.0930     0.1890 H     1 <1>   0.0800 
 36 H      -13.5230     3.7060    -0.8490 H     1 <1>   0.0800 
 37 H      -13.3670     2.8890     0.6900 H     1 <1>   0.0800 
@<TRIPOS>BOND
  1   1   2  1   
  2   2   3  ar  
  3   2   4  ar  
  4   3   5  ar  
  5   3  23  1   
  6   4   6  ar  
  7   4  24  1   
  8   5   7  ar  
  9   5  25  1   
 10   6   7  ar  
 11   6  26  1   
 12   7   8  1   
 13   8   9  2   
 14   8  10  1   
 15   9  11  1   
 16  10  12  2   
 17  11  12  1   
 18  12  13  1   
 19  13  14  1   
 20  13  27  1   
 21  13  28  1   
 22  14  15  am  
 23  14  29  1   
 24  15  16  2   
 25  15  17  am  
 26  17  18  1   
 27  17  19  1   
 28  18  20  1   
 29  18  30  1   
 30  18  31  1   
 31  19  21  1   
 32  19  32  1   
 33  19  33  1   
 34  20  22  1   
 35  20  34  1   
 36  20  35  1   
 37  21  22  1   
 38  21  36  1   
 39  21  37  1   
@<TRIPOS>SUBSTRUCTURE
  1 ****  12 GROUP 4 **** **** 0

# MOE 2024.06 (io_trps.svl 2023.06)
