@<TRIPOS>MOLECULE
4-(4-Methoxy-2,5-dimethyl-phenyl)-butyric acid
33 33 1 0 0 
SMALL
USER_CHARGES


@<TRIPOS>ATOM
  1 O       -0.9180    -0.6460     1.1990 O.co2 1 <1>  -0.9000 
  2 C       -1.4020    -0.5140     0.0720 C.2   1 <1>   0.9060 
  3 O       -0.8450    -0.9200    -0.9520 O.co2 1 <1>  -0.9000 
  4 C       -2.7400     0.1750    -0.0610 C.3   1 <1>  -0.2660 
  5 C       -3.9110    -0.8190     0.0260 C.3   1 <1>  -0.1600 
  6 C       -5.2660    -0.1100    -0.1100 C.3   1 <1>  -0.0170 
  7 C       -6.5120    -1.0050    -0.0370 C.ar  1 <1>  -0.1440 
  8 C       -7.7790    -0.4370    -0.1530 C.ar  1 <1>  -0.1440 
  9 C       -6.4120    -2.3810     0.1420 C.ar  1 <1>  -0.1500 
 10 C       -8.9070    -1.2420    -0.0880 C.ar  1 <1>  -0.1500 
 11 C       -7.9660     1.0620    -0.3500 C.3   1 <1>  -0.0970 
 12 C       -7.5360    -3.1870     0.2070 C.ar  1 <1>  -0.1440 
 13 C       -8.7960    -2.6170     0.0920 C.ar  1 <1>   0.0820 
 14 C       -7.3770    -4.6880     0.4040 C.3   1 <1>  -0.0970 
 15 O       -9.8740    -3.4450     0.1610 O.3   1 <1>  -0.3630 
 16 C      -11.1910    -2.9560     0.0550 C.3   1 <1>   0.0400 
 17 H       -2.7520     0.6830    -1.0060 H     1 <1>   0.0800 
 18 H       -2.8110     0.9040     0.7230 H     1 <1>   0.0800 
 19 H       -3.8560    -1.3270     0.9750 H     1 <1>   0.0800 
 20 H       -3.7970    -1.5480    -0.7580 H     1 <1>   0.0800 
 21 H       -5.2740     0.4060    -1.0530 H     1 <1>   0.0800 
 22 H       -5.3320     0.6260     0.6710 H     1 <1>   0.0800 
 23 H       -5.4500    -2.8470     0.2340 H     1 <1>   0.1500 
 24 H       -9.8710    -0.7840    -0.1790 H     1 <1>   0.1500 
 25 H       -7.5410     1.5980     0.4790 H     1 <1>   0.0800 
 26 H       -9.0070     1.3190    -0.4180 H     1 <1>   0.0800 
 27 H       -7.4830     1.3770    -1.2580 H     1 <1>   0.0800 
 28 H       -6.3410    -4.9650     0.4740 H     1 <1>   0.0800 
 29 H       -7.8180    -5.2100    -0.4260 H     1 <1>   0.0800 
 30 H       -7.8760    -4.9890     1.3070 H     1 <1>   0.0800 
 31 H      -11.8640    -3.7900     0.1380 H     1 <1>   0.0800 
 32 H      -11.3110    -2.4840    -0.9040 H     1 <1>   0.0800 
 33 H      -11.3700    -2.2600     0.8540 H     1 <1>   0.0800 
@<TRIPOS>BOND
  1   1   2  ar  
  2   2   3  ar  
  3   2   4  1   
  4   4   5  1   
  5   4  17  1   
  6   4  18  1   
  7   5   6  1   
  8   5  19  1   
  9   5  20  1   
 10   6   7  1   
 11   6  21  1   
 12   6  22  1   
 13   7   8  ar  
 14   7   9  ar  
 15   8  10  ar  
 16   8  11  1   
 17   9  12  ar  
 18   9  23  1   
 19  10  13  ar  
 20  10  24  1   
 21  11  25  1   
 22  11  26  1   
 23  11  27  1   
 24  12  13  ar  
 25  12  14  1   
 26  13  15  1   
 27  14  28  1   
 28  14  29  1   
 29  14  30  1   
 30  15  16  1   
 31  16  31  1   
 32  16  32  1   
 33  16  33  1   
@<TRIPOS>SUBSTRUCTURE
  1 ****   7 GROUP 4 **** **** 0

# MOE 2024.06 (io_trps.svl 2023.06)
