@<TRIPOS>MOLECULE
3-((E)-But-2-enyl)-8-(2,5-dimethoxy-phenyl)-1,6-dimethyl-5,6,7,8-tetrahydro-1H-1
59 62 1 0 0 
SMALL
USER_CHARGES


@<TRIPOS>ATOM
  1 O       -0.2170     0.9170    -0.5070 O.2   1 <1>  -0.5740 
  2 C        0.9690     1.1750    -0.5300 C.2   1 <1>   0.6870 
  3 N        1.4040     2.4690    -0.7890 N.am  1 <1>  -0.4250 
  4 N        1.8950     0.1610    -0.3220 N.am  1 <1>  -0.4410 
  5 C        2.7480     2.7650    -0.9320 C.2   1 <1>   0.7000 
  6 C        0.4200     3.5810    -0.7820 C.3   1 <1>   0.2730 
  7 C        3.2360     0.4690    -0.4500 C.2   1 <1>   0.4210 
  8 C        1.4550    -1.2290     0.0000 C.3   1 <1>   0.0530 
  9 O        3.1200     3.8910    -1.2210 O.2   1 <1>  -0.5740 
 10 C        3.6910     1.7070    -0.7390 C.2   1 <1>   0.2720 
 11 C        0.4320     4.2260     0.5910 C.2   1 <1>  -0.2940 
 12 N        4.3040    -0.3640    -0.3170 N.pl3 1 <1>  -0.7030 
 13 N        5.0900     1.6100    -0.7680 N.pl3 1 <1>  -0.7670 
 14 C       -0.5350     4.0960     1.5030 C.2   1 <1>  -0.2940 
 15 C        5.4110     0.3480    -0.5060 C.cat 1 <1>   1.0690 
 16 C        6.0620     2.6990    -0.9940 C.3   1 <1>   0.3490 
 17 C       -0.5200     4.7460     2.8730 C.3   1 <1>  -0.1080 
 18 N        6.6840    -0.0960    -0.4650 N.pl3 1 <1>  -0.5790 
 19 C        7.4090     2.3050    -0.3650 C.3   1 <1>  -0.0870 
 20 C        7.0370    -1.4420    -0.2190 C.ar  1 <1>   0.3060 
 21 C        7.7980     0.8610    -0.7370 C.3   1 <1>   0.1620 
 22 C        8.5160     3.2850    -0.7790 C.3   1 <1>  -0.2460 
 23 C        6.6250    -2.1240     0.9370 C.ar  1 <1>   0.0760 
 24 C        7.8140    -2.1150    -1.1500 C.ar  1 <1>  -0.1560 
 25 O        5.8510    -1.4560     1.8430 O.3   1 <1>  -0.3670 
 26 C        7.0000    -3.4490     1.1320 C.ar  1 <1>  -0.1560 
 27 C        8.1880    -3.4310    -0.9560 C.ar  1 <1>   0.0760 
 28 C        5.8270    -1.8620     3.1980 C.3   1 <1>   0.0330 
 29 C        7.7780    -4.1000     0.1910 C.ar  1 <1>  -0.1560 
 30 O        8.9480    -3.9900    -1.9300 O.3   1 <1>  -0.3670 
 31 C        9.4110    -5.3190    -1.8230 C.3   1 <1>   0.0330 
 32 H        0.6710     4.3100    -1.5340 H     1 <1>   0.0730 
 33 H       -0.5680     3.2140    -1.0050 H     1 <1>   0.0730 
 34 H        2.1150    -1.6730     0.7230 H     1 <1>   0.0730 
 35 H        1.4490    -1.8240    -0.8960 H     1 <1>   0.0730 
 36 H        0.4610    -1.2240     0.4160 H     1 <1>   0.0730 
 37 H        1.3180     4.8140     0.7620 H     1 <1>   0.1440 
 38 H        4.3260    -1.3280     0.0060 H     1 <1>   0.4460 
 39 H       -1.4230     3.5060     1.3340 H     1 <1>   0.1440 
 40 H        6.1740     2.8550    -2.0550 H     1 <1>   0.0730 
 41 H        5.7040     3.6140    -0.5510 H     1 <1>   0.0730 
 42 H       -1.3690     5.3970     2.9800 H     1 <1>   0.0730 
 43 H        0.3760     5.3240     3.0110 H     1 <1>   0.0730 
 44 H       -0.5640     3.9910     3.6380 H     1 <1>   0.0730 
 45 H        7.3100     2.3620     0.7060 H     1 <1>   0.0730 
 46 H        8.6660     0.5700    -0.1680 H     1 <1>   0.0730 
 47 H        8.0510     0.8110    -1.7830 H     1 <1>   0.0730 
 48 H        8.6680     3.2720    -1.8450 H     1 <1>   0.0730 
 49 H        9.4460     3.0250    -0.3010 H     1 <1>   0.0730 
 50 H        8.2610     4.2890    -0.4840 H     1 <1>   0.0730 
 51 H        8.1390    -1.6240    -2.0480 H     1 <1>   0.1440 
 52 H        6.6950    -3.9970     2.0050 H     1 <1>   0.1440 
 53 H        5.3260    -1.1020     3.7700 H     1 <1>   0.0730 
 54 H        6.8380    -1.9740     3.5510 H     1 <1>   0.0730 
 55 H        5.2880    -2.7900     3.2810 H     1 <1>   0.0730 
 56 H        8.0540    -5.1240     0.3670 H     1 <1>   0.1440 
 57 H        9.9980    -5.5390    -2.6960 H     1 <1>   0.0730 
 58 H        8.5660    -5.9820    -1.7750 H     1 <1>   0.0730 
 59 H       10.0220    -5.4070    -0.9420 H     1 <1>   0.0730 
@<TRIPOS>BOND
  1   1   2  2   
  2   2   3  am  
  3   2   4  am  
  4   3   5  am  
  5   3   6  1   
  6   4   7  1   
  7   4   8  1   
  8   5   9  2   
  9   5  10  1   
 10   6  11  1   
 11   6  32  1   
 12   6  33  1   
 13   7  10  2   
 14   7  12  1   
 15   8  34  1   
 16   8  35  1   
 17   8  36  1   
 18  10  13  1   
 19  11  14  2   
 20  11  37  1   
 21  12  15  ar  
 22  12  38  1   
 23  13  15  ar  
 24  13  16  1   
 25  14  17  1   
 26  14  39  1   
 27  15  18  ar  
 28  16  19  1   
 29  16  40  1   
 30  16  41  1   
 31  17  42  1   
 32  17  43  1   
 33  17  44  1   
 34  18  20  1   
 35  18  21  1   
 36  19  21  1   
 37  19  22  1   
 38  19  45  1   
 39  20  23  ar  
 40  20  24  ar  
 41  21  46  1   
 42  21  47  1   
 43  22  48  1   
 44  22  49  1   
 45  22  50  1   
 46  23  25  1   
 47  23  26  ar  
 48  24  27  ar  
 49  24  51  1   
 50  25  28  1   
 51  26  29  ar  
 52  26  52  1   
 53  27  29  ar  
 54  27  30  1   
 55  28  53  1   
 56  28  54  1   
 57  28  55  1   
 58  29  56  1   
 59  30  31  1   
 60  31  57  1   
 61  31  58  1   
 62  31  59  1   
@<TRIPOS>SUBSTRUCTURE
  1 ****  12 GROUP 4 **** **** 0

# MOE 2024.06 (io_trps.svl 2023.06)
