@<TRIPOS>MOLECULE
5-Pyrrolidin-1-ylmethyl-3-(4-trifluoromethyl-phenyl)-[1,2,4]oxadiazole
35 37 1 0 0 
SMALL
USER_CHARGES


@<TRIPOS>ATOM
  1 F       -0.3250     0.1520     0.7460 F     1 <1>  -0.3400 
  2 C       -0.4360    -0.9750     0.0550 C.3   1 <1>   1.1640 
  3 F       -0.9210    -0.6360    -1.1340 F     1 <1>  -0.3400 
  4 F       -1.3860    -1.6860     0.6520 F     1 <1>  -0.3400 
  5 C        0.9030    -1.7260    -0.0380 C.ar  1 <1>  -0.1440 
  6 C        1.2640    -2.6700     0.9170 C.ar  1 <1>  -0.1500 
  7 C        1.7930    -1.4730    -1.0760 C.ar  1 <1>  -0.1500 
  8 C        2.4710    -3.3390     0.8310 C.ar  1 <1>  -0.1500 
  9 C        2.9990    -2.1470    -1.1550 C.ar  1 <1>  -0.1500 
 10 C        3.3730    -3.0980    -0.2060 C.ar  1 <1>   0.0540 
 11 C        4.6450    -3.7990    -0.2970 C.2   1 <1>   0.4620 
 12 N        5.5280    -3.6280    -1.2160 N.2   1 <1>  -0.4100 
 13 N        5.0310    -4.7150     0.5960 N.2   1 <1>  -0.5650 
 14 O        6.5210    -4.4240    -0.9670 O.3   1 <1>  -0.0190 
 15 C        6.1660    -5.0460     0.1270 C.2   1 <1>   0.2980 
 16 C        7.1200    -6.0740     0.7290 C.3   1 <1>   0.2900 
 17 N        7.3640    -7.2360    -0.1540 N.3   1 <1>  -0.8100 
 18 C        8.2700    -8.2130     0.4330 C.3   1 <1>   0.1100 
 19 C        6.1450    -7.9680    -0.4870 C.3   1 <1>   0.1100 
 20 C        8.0450    -9.4760    -0.3880 C.3   1 <1>  -0.1600 
 21 C        6.6300    -9.3370    -0.9510 C.3   1 <1>  -0.1600 
 22 H        0.6040    -2.8920     1.7400 H     1 <1>   0.1500 
 23 H        1.5540    -0.7460    -1.8340 H     1 <1>   0.1500 
 24 H        2.7200    -4.0660     1.5860 H     1 <1>   0.1500 
 25 H        3.6670    -1.9300    -1.9710 H     1 <1>   0.1500 
 26 H        6.7120    -6.4120     1.6650 H     1 <1>   0.0800 
 27 H        8.0570    -5.5850     0.9290 H     1 <1>   0.0800 
 28 H        8.0030    -8.3970     1.4600 H     1 <1>   0.0800 
 29 H        9.2920    -7.8760     0.3760 H     1 <1>   0.0800 
 30 H        5.5890    -7.4610    -1.2580 H     1 <1>   0.0800 
 31 H        5.5280    -8.0790     0.3900 H     1 <1>   0.0800 
 32 H        8.1570   -10.3560     0.2190 H     1 <1>   0.0800 
 33 H        8.7590    -9.5100    -1.1920 H     1 <1>   0.0800 
 34 H        6.6530    -9.3680    -2.0260 H     1 <1>   0.0800 
 35 H        5.9760   -10.1110    -0.5920 H     1 <1>   0.0800 
@<TRIPOS>BOND
  1   1   2  1   
  2   2   3  1   
  3   2   4  1   
  4   2   5  1   
  5   5   6  ar  
  6   5   7  ar  
  7   6   8  ar  
  8   6  22  1   
  9   7   9  ar  
 10   7  23  1   
 11   8  10  ar  
 12   8  24  1   
 13   9  10  ar  
 14   9  25  1   
 15  10  11  1   
 16  11  12  2   
 17  11  13  1   
 18  12  14  1   
 19  13  15  2   
 20  14  15  1   
 21  15  16  1   
 22  16  17  1   
 23  16  26  1   
 24  16  27  1   
 25  17  18  1   
 26  17  19  1   
 27  18  20  1   
 28  18  28  1   
 29  18  29  1   
 30  19  21  1   
 31  19  30  1   
 32  19  31  1   
 33  20  21  1   
 34  20  32  1   
 35  20  33  1   
 36  21  34  1   
 37  21  35  1   
@<TRIPOS>SUBSTRUCTURE
  1 ****  11 GROUP 4 **** **** 0

# MOE 2024.06 (io_trps.svl 2023.06)
