@<TRIPOS>MOLECULE
3-Methyl-7-(2-methyl-benzyl)-8-piperazin-1-yl-3,7-dihydro-purine-2,6-dione
50 53 1 0 0 
SMALL
USER_CHARGES


@<TRIPOS>ATOM
  1 O        0.2460     0.8650     0.9960 O.2   1 <1>  -0.5750 
  2 C        1.3540     1.3460     1.0120 C.2   1 <1>   0.6860 
  3 N        2.4760     0.6350     0.6110 N.am  1 <1>  -0.4420 
  4 N        1.4990     2.6340     1.4370 N.am  1 <1>  -0.4950 
  5 C        3.6970     1.2940     0.6370 C.2   1 <1>   0.4200 
  6 C        2.3540    -0.7790     0.1500 C.3   1 <1>   0.0520 
  7 C        2.6940     3.2890     1.4840 C.2   1 <1>   0.6990 
  8 N        4.9080     0.8030     0.2600 N.pl3 1 <1>  -0.7040 
  9 C        3.8600     2.5720     1.0430 C.2   1 <1>   0.2700 
 10 O        2.7180     4.4300     1.8950 O.2   1 <1>  -0.5750 
 11 C        5.8270     1.7620     0.4040 C.cat 1 <1>   1.0690 
 12 N        5.2360     2.8600     0.9020 N.pl3 1 <1>  -0.7670 
 13 N        7.1330     1.5560     0.0650 N.pl3 1 <1>  -0.5970 
 14 C        5.8050     4.1610     1.3700 C.3   1 <1>   0.4920 
 15 C        7.7280     0.1730    -0.0130 C.3   1 <1>   0.1600 
 16 C        8.0290     2.6560    -0.4460 C.3   1 <1>   0.1600 
 17 C        6.2370     5.0360     0.1980 C.ar  1 <1>  -0.1510 
 18 C        9.2400     0.1540     0.3230 C.3   1 <1>   0.3370 
 19 C        9.2590     2.1600    -1.2380 C.3   1 <1>   0.3370 
 20 C        7.3760     5.8370     0.2860 C.ar  1 <1>  -0.1510 
 21 C        5.4980     5.0350    -0.9810 C.ar  1 <1>  -0.1580 
 22 N       10.0500     1.1230    -0.4940 N.4   1 <1>  -0.9090 
 23 C        7.7820     6.5670    -0.8210 C.ar  1 <1>  -0.1580 
 24 C        8.1930     5.9750     1.5670 C.3   1 <1>  -0.1040 
 25 C        5.9110     5.7700    -2.0760 C.ar  1 <1>  -0.1580 
 26 C        7.0600     6.5300    -1.9980 C.ar  1 <1>  -0.1580 
 27 H        0.6580     3.1270     1.7320 H     1 <1>   0.3640 
 28 H        1.4030    -1.1930     0.4390 H     1 <1>   0.0720 
 29 H        3.1270    -1.3840     0.5910 H     1 <1>   0.0720 
 30 H        2.4300    -0.8210    -0.9230 H     1 <1>   0.0720 
 31 H        5.0520    -0.1170    -0.1410 H     1 <1>   0.4440 
 32 H        6.6440     3.9480     2.0080 H     1 <1>   0.0720 
 33 H        5.0930     4.7040     1.9640 H     1 <1>   0.0720 
 34 H        7.5850    -0.2230    -1.0050 H     1 <1>   0.0720 
 35 H        7.2240    -0.4820     0.6780 H     1 <1>   0.0720 
 36 H        8.3740     3.2490     0.3810 H     1 <1>   0.0720 
 37 H        7.4700     3.2890    -1.1110 H     1 <1>   0.0720 
 38 H        9.6240    -0.8440     0.1820 H     1 <1>   0.0720 
 39 H        9.3540     0.3940     1.3680 H     1 <1>   0.0720 
 40 H        9.8920     3.0000    -1.4800 H     1 <1>   0.0720 
 41 H        8.9120     1.7420    -2.1690 H     1 <1>   0.0720 
 42 H        4.5880     4.4690    -1.0710 H     1 <1>   0.1420 
 43 H       10.6310     0.6030    -1.1700 H     1 <1>   0.4440 
 44 H       10.7270     1.5920     0.1260 H     1 <1>   0.4440 
 45 H        8.6600     7.1890    -0.7740 H     1 <1>   0.1420 
 46 H        8.7410     5.0770     1.7780 H     1 <1>   0.0720 
 47 H        7.5480     6.2030     2.3980 H     1 <1>   0.0720 
 48 H        8.8990     6.7830     1.4820 H     1 <1>   0.0720 
 49 H        5.3350     5.7630    -2.9870 H     1 <1>   0.1420 
 50 H        7.3830     7.1080    -2.8480 H     1 <1>   0.1420 
@<TRIPOS>BOND
  1   1   2  2   
  2   2   3  am  
  3   2   4  am  
  4   3   5  1   
  5   3   6  1   
  6   4   7  am  
  7   4  27  1   
  8   5   8  1   
  9   5   9  2   
 10   6  28  1   
 11   6  29  1   
 12   6  30  1   
 13   7   9  1   
 14   7  10  2   
 15   8  11  ar  
 16   8  31  1   
 17   9  12  1   
 18  11  12  ar  
 19  11  13  ar  
 20  12  14  1   
 21  13  15  1   
 22  13  16  1   
 23  14  17  1   
 24  14  32  1   
 25  14  33  1   
 26  15  18  1   
 27  15  34  1   
 28  15  35  1   
 29  16  19  1   
 30  16  36  1   
 31  16  37  1   
 32  17  20  ar  
 33  17  21  ar  
 34  18  22  1   
 35  18  38  1   
 36  18  39  1   
 37  19  22  1   
 38  19  40  1   
 39  19  41  1   
 40  20  23  ar  
 41  20  24  1   
 42  21  25  ar  
 43  21  42  1   
 44  22  43  1   
 45  22  44  1   
 46  23  26  ar  
 47  23  45  1   
 48  24  46  1   
 49  24  47  1   
 50  24  48  1   
 51  25  26  ar  
 52  25  49  1   
 53  26  50  1   
@<TRIPOS>SUBSTRUCTURE
  1 ****  12 GROUP 4 **** **** 0

# MOE 2024.06 (io_trps.svl 2023.06)
