@<TRIPOS>MOLECULE
1,3,7-Trimethyl-8-(2-propoxy-phenyl)-1H,8H-imidazo[2,1-f]purine-2,4-dione
49 52 1 0 0 
SMALL
USER_CHARGES


@<TRIPOS>ATOM
  1 O        2.8610     2.3600    -2.6450 O.2   1 <1>  -0.5750 
  2 C        3.4230     2.0980    -1.6020 C.2   1 <1>   0.6860 
  3 N        3.2530     2.9220    -0.4920 N.am  1 <1>  -0.4260 
  4 N        4.2450     0.9790    -1.5220 N.am  1 <1>  -0.4420 
  5 C        3.9450     2.6890     0.6910 C.2   1 <1>   0.6990 
  6 C        2.3440     4.1050    -0.5990 C.3   1 <1>   0.0520 
  7 C        4.9180     0.7490    -0.3400 C.2   1 <1>   0.4200 
  8 C        4.4250     0.0800    -2.7000 C.3   1 <1>   0.0520 
  9 O        3.8280     3.4370     1.6470 O.2   1 <1>  -0.5750 
 10 C        4.8030     1.5520     0.7460 C.2   1 <1>   0.2700 
 11 N        5.8010    -0.2530    -0.0650 N.pl3 1 <1>  -0.7040 
 12 N        5.6580     1.0190     1.7220 N.pl3 1 <1>  -0.6330 
 13 C        6.2370    -0.0440     1.1810 C.cat 1 <1>   1.0690 
 14 C        6.2360     1.1990     2.9620 C.2   1 <1>   0.2220 
 15 N        7.1330    -0.6050     2.0040 N.pl3 1 <1>  -0.5550 
 16 C        7.1410     0.2110     3.1330 C.2   1 <1>   0.1570 
 17 C        7.9700    -1.7040     1.6840 C.ar  1 <1>   0.3050 
 18 C        8.0710    -0.0280     4.3090 C.3   1 <1>  -0.1100 
 19 C        8.7450    -1.7160     0.5150 C.ar  1 <1>   0.0750 
 20 C        8.0140    -2.8000     2.5340 C.ar  1 <1>  -0.1570 
 21 O        8.6460    -0.6480    -0.3280 O.3   1 <1>  -0.3690 
 22 C        9.5680    -2.8050     0.2420 C.ar  1 <1>  -0.1570 
 23 C        8.8280    -3.8820     2.2530 C.ar  1 <1>  -0.1570 
 24 C        9.4920    -0.4970    -1.4470 C.3   1 <1>   0.1120 
 25 C        9.6060    -3.8810     1.1110 C.ar  1 <1>  -0.1570 
 26 C        9.1120     0.8070    -2.1480 C.3   1 <1>  -0.1670 
 27 C        9.9690     1.0320    -3.3970 C.3   1 <1>  -0.2470 
 28 H        1.4920     3.8660    -1.2130 H     1 <1>   0.0720 
 29 H        2.8750     4.9280    -1.0460 H     1 <1>   0.0720 
 30 H        1.9850     4.4050     0.3700 H     1 <1>   0.0720 
 31 H        3.5680     0.1340    -3.3500 H     1 <1>   0.0720 
 32 H        4.5380    -0.9410    -2.3810 H     1 <1>   0.0720 
 33 H        5.2960     0.3810    -3.2560 H     1 <1>   0.0720 
 34 H        6.2390    -0.9270    -0.6920 H     1 <1>   0.4450 
 35 H        5.9660     2.0180     3.6130 H     1 <1>   0.1430 
 36 H        7.9920     0.7760     5.0180 H     1 <1>   0.0720 
 37 H        7.8200    -0.9460     4.8080 H     1 <1>   0.0720 
 38 H        9.0910    -0.0830     3.9690 H     1 <1>   0.0720 
 39 H        7.4080    -2.8180     3.4220 H     1 <1>   0.1430 
 40 H       10.1850    -2.8440    -0.6360 H     1 <1>   0.1430 
 41 H        8.8580    -4.7270     2.9210 H     1 <1>   0.1430 
 42 H        9.3470    -1.3350    -2.1070 H     1 <1>   0.0720 
 43 H       10.5130    -0.4650    -1.1050 H     1 <1>   0.0720 
 44 H       10.2440    -4.7230     0.8960 H     1 <1>   0.1430 
 45 H        9.2590     1.6310    -1.4710 H     1 <1>   0.0720 
 46 H        8.0770     0.7730    -2.4380 H     1 <1>   0.0720 
 47 H       11.0110     1.0890    -3.1350 H     1 <1>   0.0720 
 48 H        9.6890     1.9560    -3.8740 H     1 <1>   0.0720 
 49 H        9.8320     0.2300    -4.1020 H     1 <1>   0.0720 
@<TRIPOS>BOND
  1   1   2  2   
  2   2   3  am  
  3   2   4  am  
  4   3   5  am  
  5   3   6  1   
  6   4   7  1   
  7   4   8  1   
  8   5   9  2   
  9   5  10  1   
 10   6  28  1   
 11   6  29  1   
 12   6  30  1   
 13   7  10  2   
 14   7  11  1   
 15   8  31  1   
 16   8  32  1   
 17   8  33  1   
 18  10  12  1   
 19  11  13  ar  
 20  11  34  1   
 21  12  13  ar  
 22  12  14  1   
 23  13  15  ar  
 24  14  16  2   
 25  14  35  1   
 26  15  16  1   
 27  15  17  1   
 28  16  18  1   
 29  17  19  ar  
 30  17  20  ar  
 31  18  36  1   
 32  18  37  1   
 33  18  38  1   
 34  19  21  1   
 35  19  22  ar  
 36  20  23  ar  
 37  20  39  1   
 38  21  24  1   
 39  22  25  ar  
 40  22  40  1   
 41  23  25  ar  
 42  23  41  1   
 43  24  26  1   
 44  24  42  1   
 45  24  43  1   
 46  25  44  1   
 47  26  27  1   
 48  26  45  1   
 49  26  46  1   
 50  27  47  1   
 51  27  48  1   
 52  27  49  1   
@<TRIPOS>SUBSTRUCTURE
  1 ****  13 GROUP 4 **** **** 0

# MOE 2024.06 (io_trps.svl 2023.06)
