@<TRIPOS>MOLECULE
4-(4-Benzyl-piperazin-1-ylmethyl)-6-methoxy-chromen-2-one
52 55 1 0 0 
SMALL
USER_CHARGES


@<TRIPOS>ATOM
  1 O       -0.3970     1.1970    -2.6900 O.2   1 <1>  -0.5700 
  2 C       -0.8870     2.0790    -2.0160 C.2   1 <1>   0.7060 
  3 O       -2.1580     1.9680    -1.6330 O.3   1 <1>  -0.2330 
  4 C       -0.1590     3.2280    -1.5950 C.2   1 <1>  -0.1360 
  5 C       -2.7780     2.9100    -0.8850 C.ar  1 <1>   0.0820 
  6 C       -0.7070     4.1970    -0.8240 C.2   1 <1>  -0.1670 
  7 C       -2.0960     4.0630    -0.4600 C.ar  1 <1>   0.0280 
  8 C       -4.1090     2.6990    -0.5600 C.ar  1 <1>  -0.1500 
  9 C        0.0930     5.4140    -0.3560 C.3   1 <1>   0.2480 
 10 C       -2.8220     5.0030     0.2830 C.ar  1 <1>  -0.1500 
 11 C       -4.7940     3.6350     0.1850 C.ar  1 <1>  -0.1500 
 12 N        1.5420     5.1330    -0.3230 N.3   1 <1>  -0.8100 
 13 C       -4.1560     4.7910     0.6070 C.ar  1 <1>   0.0830 
 14 C        2.3500     6.3750    -0.2750 C.3   1 <1>   0.1100 
 15 C        1.9040     4.2410     0.8130 C.3   1 <1>   0.1100 
 16 O       -4.9090     5.6600     1.3290 O.3   1 <1>  -0.3630 
 17 C        3.8740     6.0860    -0.2830 C.3   1 <1>   0.3430 
 18 C        3.4220     3.9410     0.8720 C.3   1 <1>   0.3430 
 19 C       -4.3980     6.8970     1.7730 C.3   1 <1>   0.0400 
 20 N        4.1480     4.6130    -0.2590 N.4   1 <1>  -0.9590 
 21 C        5.5870     4.2540    -0.3530 C.3   1 <1>   0.4860 
 22 C        5.7060     2.7450    -0.4440 C.ar  1 <1>  -0.1430 
 23 C        6.2350     2.0240     0.6180 C.ar  1 <1>  -0.1500 
 24 C        5.2780     2.0710    -1.5800 C.ar  1 <1>  -0.1500 
 25 C        6.3220     0.6450     0.5490 C.ar  1 <1>  -0.1500 
 26 C        5.3640     0.6920    -1.6460 C.ar  1 <1>  -0.1500 
 27 C        5.8840    -0.0210    -0.5820 C.ar  1 <1>  -0.1500 
 28 H        0.8570     3.2590    -1.9360 H     1 <1>   0.1500 
 29 H       -4.6030     1.8030    -0.8960 H     1 <1>   0.1500 
 30 H       -0.2200     5.7150     0.6290 H     1 <1>   0.0800 
 31 H       -0.1080     6.2260    -1.0350 H     1 <1>   0.0800 
 32 H       -2.3450     5.9030     0.6040 H     1 <1>   0.1500 
 33 H       -5.8260     3.4820     0.4450 H     1 <1>   0.1500 
 34 H        2.1020     6.9390     0.6090 H     1 <1>   0.0800 
 35 H        2.1120     6.9890    -1.1280 H     1 <1>   0.0800 
 36 H        1.3760     3.3070     0.7250 H     1 <1>   0.0800 
 37 H        1.6020     4.6900     1.7450 H     1 <1>   0.0800 
 38 H        4.3270     6.5610     0.5720 H     1 <1>   0.0800 
 39 H        4.3050     6.5240    -1.1680 H     1 <1>   0.0800 
 40 H        3.5640     2.8730     0.8180 H     1 <1>   0.0800 
 41 H        3.8160     4.2750     1.8170 H     1 <1>   0.0800 
 42 H       -5.1810     7.4090     2.3030 H     1 <1>   0.0800 
 43 H       -4.0960     7.4770     0.9200 H     1 <1>   0.0800 
 44 H       -3.5700     6.7150     2.4350 H     1 <1>   0.0800 
 45 H        3.6680     4.2420    -1.0910 H     1 <1>   0.4500 
 46 H        6.1170     4.6100     0.5140 H     1 <1>   0.0800 
 47 H        6.0250     4.7000    -1.2320 H     1 <1>   0.0800 
 48 H        6.5850     2.5200     1.5070 H     1 <1>   0.1500 
 49 H        4.8750     2.6030    -2.4260 H     1 <1>   0.1500 
 50 H        6.7330     0.0850     1.3720 H     1 <1>   0.1500 
 51 H        5.0290     0.1690    -2.5270 H     1 <1>   0.1500 
 52 H        5.9520    -1.0950    -0.6350 H     1 <1>   0.1500 
@<TRIPOS>BOND
  1   1   2  2   
  2   2   3  1   
  3   2   4  1   
  4   3   5  1   
  5   4   6  2   
  6   4  28  1   
  7   5   7  ar  
  8   5   8  ar  
  9   6   7  1   
 10   6   9  1   
 11   7  10  ar  
 12   8  11  ar  
 13   8  29  1   
 14   9  12  1   
 15   9  30  1   
 16   9  31  1   
 17  10  13  ar  
 18  10  32  1   
 19  11  13  ar  
 20  11  33  1   
 21  12  14  1   
 22  12  15  1   
 23  13  16  1   
 24  14  17  1   
 25  14  34  1   
 26  14  35  1   
 27  15  18  1   
 28  15  36  1   
 29  15  37  1   
 30  16  19  1   
 31  17  20  1   
 32  17  38  1   
 33  17  39  1   
 34  18  20  1   
 35  18  40  1   
 36  18  41  1   
 37  19  42  1   
 38  19  43  1   
 39  19  44  1   
 40  20  21  1   
 41  20  45  1   
 42  21  22  1   
 43  21  46  1   
 44  21  47  1   
 45  22  23  ar  
 46  22  24  ar  
 47  23  25  ar  
 48  23  48  1   
 49  24  26  ar  
 50  24  49  1   
 51  25  27  ar  
 52  25  50  1   
 53  26  27  ar  
 54  26  51  1   
 55  27  52  1   
@<TRIPOS>SUBSTRUCTURE
  1 ****   4 GROUP 4 **** **** 0

# MOE 2024.06 (io_trps.svl 2023.06)
