@<TRIPOS>MOLECULE
Morpholine-4-carboxylic acid (3-p-tolyl-[1,2,4]oxadiazol-5-ylmethyl)-amide
40 42 1 0 0 
SMALL
USER_CHARGES


@<TRIPOS>ATOM
  1 O        0.1030     0.9430    -1.5650 O.2   1 <1>  -0.5700 
  2 C        0.4740     1.5740    -0.5950 C.2   1 <1>   0.6900 
  3 N       -0.4180     2.1890     0.2370 N.am  1 <1>  -0.6600 
  4 N        1.7940     1.6560    -0.3240 N.am  1 <1>  -0.7300 
  5 C       -0.0990     3.3990     1.0540 C.3   1 <1>   0.1400 
  6 C       -1.8850     1.9260     0.1320 C.3   1 <1>   0.1400 
  7 C        2.8470     1.0300    -1.1600 C.3   1 <1>   0.3200 
  8 C       -0.9600     4.5940     0.6080 C.3   1 <1>   0.1200 
  9 C       -2.6370     3.2060    -0.2650 C.3   1 <1>   0.1200 
 10 C        4.1450     1.8180    -1.0820 C.2   1 <1>   0.2980 
 11 O       -2.3170     4.2550     0.6070 O.3   1 <1>  -0.5600 
 12 O        4.2020     2.9840    -1.6690 O.3   1 <1>  -0.0190 
 13 N        5.2050     1.4570    -0.4830 N.2   1 <1>  -0.5650 
 14 N        5.4040     3.4020    -1.4230 N.2   1 <1>  -0.4100 
 15 C        6.0020     2.5040    -0.7240 C.2   1 <1>   0.4620 
 16 C        7.3700     2.5790    -0.2350 C.ar  1 <1>   0.0540 
 17 C        8.1760     3.6860    -0.5060 C.ar  1 <1>  -0.1500 
 18 C        7.9380     1.5550     0.5250 C.ar  1 <1>  -0.1500 
 19 C        9.4770     3.7680    -0.0450 C.ar  1 <1>  -0.1500 
 20 C        9.2390     1.6310     0.9890 C.ar  1 <1>  -0.1500 
 21 C       10.0190     2.7390     0.7060 C.ar  1 <1>  -0.1440 
 22 C       11.4460     2.8250     1.2150 C.3   1 <1>  -0.0970 
 23 H        2.0720     1.9470     0.6100 H     1 <1>   0.3700 
 24 H        0.9380     3.6650     0.9570 H     1 <1>   0.0800 
 25 H       -0.2970     3.1880     2.0900 H     1 <1>   0.0800 
 26 H       -2.2500     1.5830     1.0830 H     1 <1>   0.0800 
 27 H       -2.0840     1.1550    -0.5930 H     1 <1>   0.0800 
 28 H        2.5240     0.9820    -2.1850 H     1 <1>   0.0800 
 29 H        3.0200     0.0270    -0.8120 H     1 <1>   0.0800 
 30 H       -0.6830     4.9100    -0.3830 H     1 <1>   0.0800 
 31 H       -0.8290     5.4200     1.2830 H     1 <1>   0.0800 
 32 H       -3.6990     3.0450    -0.2120 H     1 <1>   0.0800 
 33 H       -2.3800     3.4970    -1.2690 H     1 <1>   0.0800 
 34 H        7.7770     4.4990    -1.0890 H     1 <1>   0.1500 
 35 H        7.3520     0.6830     0.7580 H     1 <1>   0.1500 
 36 H       10.0680     4.6380    -0.2730 H     1 <1>   0.1500 
 37 H        9.6420     0.8230     1.5730 H     1 <1>   0.1500 
 38 H       12.0500     3.4080     0.5430 H     1 <1>   0.0800 
 39 H       11.8770     1.8440     1.2930 H     1 <1>   0.0800 
 40 H       11.4580     3.2890     2.1850 H     1 <1>   0.0800 
@<TRIPOS>BOND
  1   1   2  2   
  2   2   3  am  
  3   2   4  am  
  4   3   5  1   
  5   3   6  1   
  6   4   7  1   
  7   4  23  1   
  8   5   8  1   
  9   5  24  1   
 10   5  25  1   
 11   6   9  1   
 12   6  26  1   
 13   6  27  1   
 14   7  10  1   
 15   7  28  1   
 16   7  29  1   
 17   8  11  1   
 18   8  30  1   
 19   8  31  1   
 20   9  11  1   
 21   9  32  1   
 22   9  33  1   
 23  10  12  1   
 24  10  13  2   
 25  12  14  1   
 26  13  15  1   
 27  14  15  2   
 28  15  16  1   
 29  16  17  ar  
 30  16  18  ar  
 31  17  19  ar  
 32  17  34  1   
 33  18  20  ar  
 34  18  35  1   
 35  19  21  ar  
 36  19  36  1   
 37  20  21  ar  
 38  20  37  1   
 39  21  22  1   
 40  22  38  1   
 41  22  39  1   
 42  22  40  1   
@<TRIPOS>SUBSTRUCTURE
  1 ****  10 GROUP 4 **** **** 0

# MOE 2024.06 (io_trps.svl 2023.06)
