@<TRIPOS>MOLECULE
Furan-2-carboxylic acid {2-methoxy-5-[(tetrahydro-furan-2-carbonyl)-amino]-pheny
42 44 1 0 0 
SMALL
USER_CHARGES


@<TRIPOS>ATOM
  1 O       -0.0140     0.1920    -0.0450 O.2   1 <1>  -0.5700 
  2 C        0.4710    -0.9250    -0.0340 C.2   1 <1>   0.7150 
  3 N       -0.3250    -2.0400    -0.1010 N.am  1 <1>  -0.5470 
  4 C        1.9010    -1.1020     0.0520 C.2   1 <1>   0.0550 
  5 C       -1.7110    -2.2680    -0.1830 C.ar  1 <1>   0.1170 
  6 O        2.4410    -2.3190     0.0690 O.3   1 <1>  -0.2800 
  7 C        2.9060    -0.1850     0.1270 C.2   1 <1>  -0.1500 
  8 C       -2.1600    -3.5930    -0.1530 C.ar  1 <1>   0.0830 
  9 C       -2.6480    -1.2480    -0.2960 C.ar  1 <1>  -0.1500 
 10 C        3.7470    -2.2010     0.1520 C.2   1 <1>  -0.0100 
 11 C        4.1020    -0.8990     0.1920 C.2   1 <1>  -0.1500 
 12 O       -1.2090    -4.5730    -0.0460 O.3   1 <1>  -0.3620 
 13 C       -3.5210    -3.8650    -0.2310 C.ar  1 <1>  -0.1500 
 14 C       -4.0090    -1.5080    -0.3730 C.ar  1 <1>   0.1170 
 15 C       -1.5740    -5.9360     0.0010 C.3   1 <1>   0.0400 
 16 C       -4.4330    -2.8310    -0.3390 C.ar  1 <1>  -0.1500 
 17 N       -4.8860    -0.4150    -0.4820 N.am  1 <1>  -0.5470 
 18 C       -6.2470    -0.2990    -0.5450 C.2   1 <1>   0.5690 
 19 O       -7.0090    -1.2380    -0.5330 O.2   1 <1>  -0.5700 
 20 C       -6.8220     1.1210    -0.6320 C.3   1 <1>   0.2610 
 21 O       -5.8150     2.0920    -0.7690 O.3   1 <1>  -0.5600 
 22 C       -7.5800     1.5590     0.6160 C.3   1 <1>  -0.1600 
 23 C       -6.3030     3.3390    -0.3870 C.3   1 <1>   0.1200 
 24 C       -7.4310     3.0730     0.6080 C.3   1 <1>  -0.1600 
 25 H        0.2090    -2.9110    -0.0590 H     1 <1>   0.3700 
 26 H        2.8070     0.8870     0.1350 H     1 <1>   0.1500 
 27 H       -2.3260    -0.2260    -0.3250 H     1 <1>   0.1500 
 28 H        4.3540    -3.0900     0.1780 H     1 <1>   0.1500 
 29 H        5.0880    -0.4720     0.2590 H     1 <1>   0.1500 
 30 H       -3.8970    -4.8700    -0.2090 H     1 <1>   0.1500 
 31 H       -0.6750    -6.5200     0.0890 H     1 <1>   0.0800 
 32 H       -2.0870    -6.1920    -0.9080 H     1 <1>   0.0800 
 33 H       -2.2010    -6.1010     0.8600 H     1 <1>   0.0800 
 34 H       -5.4790    -3.0660    -0.3980 H     1 <1>   0.1500 
 35 H       -4.4340     0.5040    -0.5300 H     1 <1>   0.3700 
 36 H       -7.4580     1.1920    -1.4960 H     1 <1>   0.0800 
 37 H       -7.1060     1.1420     1.4880 H     1 <1>   0.0800 
 38 H       -8.6060     1.2380     0.5860 H     1 <1>   0.0800 
 39 H       -6.6680     3.8400    -1.2670 H     1 <1>   0.0800 
 40 H       -5.4970     3.9040     0.0510 H     1 <1>   0.0800 
 41 H       -7.1800     3.4490     1.5850 H     1 <1>   0.0800 
 42 H       -8.3330     3.5520     0.2710 H     1 <1>   0.0800 
@<TRIPOS>BOND
  1   1   2  2   
  2   2   3  am  
  3   2   4  1   
  4   3   5  1   
  5   3  25  1   
  6   4   6  1   
  7   4   7  2   
  8   5   8  ar  
  9   5   9  ar  
 10   6  10  1   
 11   7  11  1   
 12   7  26  1   
 13   8  12  1   
 14   8  13  ar  
 15   9  14  ar  
 16   9  27  1   
 17  10  11  2   
 18  10  28  1   
 19  11  29  1   
 20  12  15  1   
 21  13  16  ar  
 22  13  30  1   
 23  14  16  ar  
 24  14  17  1   
 25  15  31  1   
 26  15  32  1   
 27  15  33  1   
 28  16  34  1   
 29  17  18  am  
 30  17  35  1   
 31  18  19  2   
 32  18  20  1   
 33  20  21  1   
 34  20  22  1   
 35  20  36  1   
 36  21  23  1   
 37  22  24  1   
 38  22  37  1   
 39  22  38  1   
 40  23  24  1   
 41  23  39  1   
 42  23  40  1   
 43  24  41  1   
 44  24  42  1   
@<TRIPOS>SUBSTRUCTURE
  1 ****   9 GROUP 4 **** **** 0

# MOE 2024.06 (io_trps.svl 2023.06)
