@<TRIPOS>MOLECULE
5-Ethyl-7-methyl-2-(1,2,3,4-tetrahydroxy-butyl)-1,3-diaza-tricyclo[3.3.1.1*3,7*]
49 51 1 0 0 
SMALL
USER_CHARGES


@<TRIPOS>ATOM
  1 O        0.2320     0.7060    -0.2160 O.2   1 <1>  -0.5700 
  2 C        0.8540    -0.2920    -0.0110 C.2   1 <1>   0.4480 
  3 C        0.9050    -1.4670    -0.9900 C.3   1 <1>   0.0610 
  4 C        1.7600    -0.4610     1.2090 C.3   1 <1>   0.0610 
  5 C        2.3600    -1.4910    -1.4770 C.3   1 <1>   0.3430 
  6 C        0.6590    -2.7760    -0.2090 C.3   1 <1>   0.1100 
  7 C       -0.0490    -1.3340    -2.2060 C.3   1 <1>  -0.1600 
  8 C        3.1910    -0.5540     0.6670 C.3   1 <1>   0.3430 
  9 C        1.4230    -1.8090     1.8570 C.3   1 <1>   0.1100 
 10 C        1.6330     0.6820     2.2360 C.3   1 <1>  -0.2400 
 11 N        3.2870    -1.6840    -0.3160 N.4   1 <1>  -0.9590 
 12 N        1.6480    -2.9040     0.8820 N.3   1 <1>  -0.8100 
 13 C       -1.5450    -1.4140    -1.8630 C.3   1 <1>  -0.2400 
 14 C        3.0140    -3.0000     0.3190 C.3   1 <1>   0.6930 
 15 C        4.1380    -3.5150     1.2860 C.3   1 <1>   0.2000 
 16 O        4.2260    -2.8180     2.5010 O.3   1 <1>  -0.6800 
 17 C        5.5400    -3.4580     0.6370 C.3   1 <1>   0.2000 
 18 O        5.4410    -3.5470    -0.7530 O.3   1 <1>  -0.6800 
 19 C        6.4470    -4.5970     1.1440 C.3   1 <1>   0.2000 
 20 O        6.0050    -5.7920     0.5850 O.3   1 <1>  -0.6800 
 21 C        7.9280    -4.4140     0.7640 C.3   1 <1>   0.1200 
 22 O        8.6280    -5.5960     1.0010 O.3   1 <1>  -0.6800 
 23 H        2.4890    -2.2950    -2.1840 H     1 <1>   0.0800 
 24 H        2.5860    -0.5630    -1.9780 H     1 <1>   0.0800 
 25 H        0.7310    -3.6260    -0.8680 H     1 <1>   0.0800 
 26 H       -0.3340    -2.7780     0.2130 H     1 <1>   0.0800 
 27 H        0.1690    -2.1080    -2.9230 H     1 <1>   0.0800 
 28 H        0.1330    -0.3890    -2.6910 H     1 <1>   0.0800 
 29 H        3.8760    -0.7140     1.4840 H     1 <1>   0.0800 
 30 H        3.4510     0.3750     0.1850 H     1 <1>   0.0800 
 31 H        2.0090    -1.9580     2.7450 H     1 <1>   0.0800 
 32 H        0.3900    -1.8130     2.1680 H     1 <1>   0.0800 
 33 H        2.2900     0.5250     3.0740 H     1 <1>   0.0800 
 34 H        0.6220     0.7420     2.6020 H     1 <1>   0.0800 
 35 H        1.8760     1.6270     1.7820 H     1 <1>   0.0800 
 36 H        4.2550    -1.7830    -0.6680 H     1 <1>   0.4500 
 37 H       -1.8150    -2.3850    -1.4890 H     1 <1>   0.0800 
 38 H       -2.1290    -1.2300    -2.7490 H     1 <1>   0.0800 
 39 H       -1.8160    -0.6710    -1.1330 H     1 <1>   0.0800 
 40 H        2.9780    -3.7360    -0.4690 H     1 <1>   0.0800 
 41 H        3.9090    -4.5390     1.5290 H     1 <1>   0.0800 
 42 H        3.5610    -3.1690     3.1330 H     1 <1>   0.4000 
 43 H        5.9890    -2.5050     0.8600 H     1 <1>   0.0800 
 44 H        5.6430    -4.4880    -0.9890 H     1 <1>   0.4000 
 45 H        6.3700    -4.6770     2.2160 H     1 <1>   0.0800 
 46 H        6.7710    -6.4170     0.6020 H     1 <1>   0.4000 
 47 H        8.3840    -3.6210     1.3310 H     1 <1>   0.0800 
 48 H        8.0200    -4.1840    -0.2840 H     1 <1>   0.0800 
 49 H        8.9120    -5.6640     1.9360 H     1 <1>   0.4000 
@<TRIPOS>BOND
  1   1   2  2   
  2   2   3  1   
  3   2   4  1   
  4   3   5  1   
  5   3   6  1   
  6   3   7  1   
  7   4   8  1   
  8   4   9  1   
  9   4  10  1   
 10   5  11  1   
 11   5  23  1   
 12   5  24  1   
 13   6  12  1   
 14   6  25  1   
 15   6  26  1   
 16   7  13  1   
 17   7  27  1   
 18   7  28  1   
 19   8  11  1   
 20   8  29  1   
 21   8  30  1   
 22   9  12  1   
 23   9  31  1   
 24   9  32  1   
 25  10  33  1   
 26  10  34  1   
 27  10  35  1   
 28  11  14  1   
 29  11  36  1   
 30  12  14  1   
 31  13  37  1   
 32  13  38  1   
 33  13  39  1   
 34  14  15  1   
 35  14  40  1   
 36  15  16  1   
 37  15  17  1   
 38  15  41  1   
 39  16  42  1   
 40  17  18  1   
 41  17  19  1   
 42  17  43  1   
 43  18  44  1   
 44  19  20  1   
 45  19  21  1   
 46  19  45  1   
 47  20  46  1   
 48  21  22  1   
 49  21  47  1   
 50  21  48  1   
 51  22  49  1   
@<TRIPOS>SUBSTRUCTURE
  1 ****  14 GROUP 4 **** **** 0

# MOE 2024.06 (io_trps.svl 2023.06)
