@<TRIPOS>MOLECULE
N-tert-Butyl-2-methyl-5-(2-oxo-pyrrolidin-1-yl)-benzenesulfonamide
43 44 1 0 0 
SMALL
USER_CHARGES


@<TRIPOS>ATOM
  1 S        0.0280    -0.2800     0.9880 S.o2  1 <1>   1.4470 
  2 O        0.2030     0.7210     2.0160 O.2   1 <1>  -0.6500 
  3 O        0.2810    -1.6700     1.2950 O.2   1 <1>  -0.6500 
  4 N        1.0680     0.0260    -0.2970 N.am  1 <1>  -0.9140 
  5 C       -1.6330    -0.1310     0.2510 C.ar  1 <1>  -0.0090 
  6 C        2.4230     0.4490    -0.0480 C.3   1 <1>   0.3560 
  7 C       -2.1080     1.0390    -0.3500 C.ar  1 <1>  -0.1440 
  8 C       -2.4810    -1.2320     0.2860 C.ar  1 <1>  -0.1500 
  9 C        3.1490     0.2340    -1.3750 C.3   1 <1>  -0.2400 
 10 C        2.4670     1.9400     0.2880 C.3   1 <1>  -0.2400 
 11 C        3.1130    -0.3930     1.0280 C.3   1 <1>  -0.2400 
 12 C       -3.3820     1.0700    -0.8950 C.ar  1 <1>  -0.1500 
 13 C       -1.2660     2.3060    -0.4300 C.3   1 <1>  -0.0970 
 14 C       -3.7610    -1.2190    -0.2580 C.ar  1 <1>   0.1170 
 15 C       -4.1970    -0.0430    -0.8510 C.ar  1 <1>  -0.1500 
 16 N       -4.5800    -2.3660    -0.2170 N.am  1 <1>  -0.4770 
 17 C       -5.9410    -2.4290    -0.1010 C.2   1 <1>   0.5690 
 18 C       -4.0040    -3.7210    -0.3430 C.3   1 <1>   0.1400 
 19 O       -6.7050    -1.5050     0.0340 O.2   1 <1>  -0.5700 
 20 C       -6.4300    -3.8510    -0.1570 C.3   1 <1>  -0.0990 
 21 C       -5.1990    -4.6370    -0.6230 C.3   1 <1>  -0.1600 
 22 H        1.1550    -0.8890    -0.7260 H     1 <1>   0.4200 
 23 H       -2.1350    -2.1290     0.7630 H     1 <1>   0.1500 
 24 H        2.6780     0.8020    -2.1580 H     1 <1>   0.0800 
 25 H        3.1520    -0.8060    -1.6470 H     1 <1>   0.0800 
 26 H        4.1710     0.5590    -1.2970 H     1 <1>   0.0800 
 27 H        3.4870     2.2790     0.3160 H     1 <1>   0.0800 
 28 H        2.0400     2.1420     1.2510 H     1 <1>   0.0800 
 29 H        1.9430     2.5100    -0.4570 H     1 <1>   0.0800 
 30 H        4.1570    -0.1390     1.0770 H     1 <1>   0.0800 
 31 H        3.0330    -1.4420     0.8070 H     1 <1>   0.0800 
 32 H        2.6950    -0.2030     2.0000 H     1 <1>   0.0800 
 33 H       -3.7550     1.9660    -1.3600 H     1 <1>   0.1500 
 34 H       -0.4460     2.1630    -1.1090 H     1 <1>   0.0800 
 35 H       -0.8800     2.5680     0.5390 H     1 <1>   0.0800 
 36 H       -1.8510     3.1370    -0.7820 H     1 <1>   0.0800 
 37 H       -5.1810     0.0040    -1.2810 H     1 <1>   0.1500 
 38 H       -3.5320    -3.9930     0.5860 H     1 <1>   0.0800 
 39 H       -3.2850    -3.7550    -1.1440 H     1 <1>   0.0800 
 40 H       -7.2530    -3.9460    -0.8430 H     1 <1>   0.0800 
 41 H       -6.7350    -4.1520     0.8280 H     1 <1>   0.0800 
 42 H       -5.1030    -5.5830    -0.1180 H     1 <1>   0.0800 
 43 H       -5.2610    -4.8130    -1.6830 H     1 <1>   0.0800 
@<TRIPOS>BOND
  1   1   2  2   
  2   1   3  2   
  3   1   4  am  
  4   1   5  1   
  5   4   6  1   
  6   4  22  1   
  7   5   7  ar  
  8   5   8  ar  
  9   6   9  1   
 10   6  10  1   
 11   6  11  1   
 12   7  12  ar  
 13   7  13  1   
 14   8  14  ar  
 15   8  23  1   
 16   9  24  1   
 17   9  25  1   
 18   9  26  1   
 19  10  27  1   
 20  10  28  1   
 21  10  29  1   
 22  11  30  1   
 23  11  31  1   
 24  11  32  1   
 25  12  15  ar  
 26  12  33  1   
 27  13  34  1   
 28  13  35  1   
 29  13  36  1   
 30  14  15  ar  
 31  14  16  1   
 32  15  37  1   
 33  16  17  am  
 34  16  18  1   
 35  17  19  2   
 36  17  20  1   
 37  18  21  1   
 38  18  38  1   
 39  18  39  1   
 40  20  21  1   
 41  20  40  1   
 42  20  41  1   
 43  21  42  1   
 44  21  43  1   
@<TRIPOS>SUBSTRUCTURE
  1 ****   5 GROUP 4 **** **** 0

# MOE 2024.06 (io_trps.svl 2023.06)
