@<TRIPOS>MOLECULE
1-[2-(4-Fluoro-phenyl)-ethyl]-5-oxo-pyrrolidine-3-carboxylic acid (5-methyl-isox
42 44 1 0 0 
SMALL
USER_CHARGES


@<TRIPOS>ATOM
  1 F        0.8870     0.6930     1.2440 F     1 <1>  -0.1900 
  2 C        2.1630     0.9580     1.1720 C.ar  1 <1>   0.1900 
  3 C        3.0690    -0.0670     1.3660 C.ar  1 <1>  -0.1500 
  4 C        2.5610     2.2530     0.9040 C.ar  1 <1>  -0.1500 
  5 C        4.4210     0.2200     1.2870 C.ar  1 <1>  -0.1500 
  6 C        3.9170     2.5280     0.8270 C.ar  1 <1>  -0.1500 
  7 C        4.8480     1.5150     1.0180 C.ar  1 <1>  -0.1430 
  8 C        6.3360     1.8140     0.9290 C.3   1 <1>  -0.0160 
  9 C        6.8610     1.4730    -0.4660 C.3   1 <1>   0.1400 
 10 N        8.3140     1.7520    -0.5480 N.am  1 <1>  -0.6600 
 11 C        9.2960     0.8540    -0.3240 C.2   1 <1>   0.5690 
 12 C        8.8340     3.0970    -0.8450 C.3   1 <1>   0.1400 
 13 O        9.1460    -0.3100    -0.0480 O.2   1 <1>  -0.5700 
 14 C       10.6470     1.4980    -0.4510 C.3   1 <1>  -0.0990 
 15 C       10.3290     2.8510    -1.1220 C.3   1 <1>  -0.0190 
 16 C       11.2320     3.9980    -0.6850 C.2   1 <1>   0.5690 
 17 O       10.7350     5.0610    -0.4010 O.2   1 <1>  -0.5700 
 18 N       12.5740     3.7780    -0.6550 N.am  1 <1>  -0.4930 
 19 C       13.6140     4.6350    -0.3000 C.2   1 <1>   0.3520 
 20 N       14.8370     4.2360    -0.3250 N.2   1 <1>  -0.4100 
 21 C       13.5380     5.9660     0.1130 C.2   1 <1>  -0.1500 
 22 O       15.5590     5.2590     0.0570 O.3   1 <1>  -0.0190 
 23 C       14.8180     6.3030     0.3240 C.2   1 <1>  -0.0400 
 24 C       15.4640     7.5920     0.7830 C.3   1 <1>  -0.0600 
 25 H        2.7220    -1.0630     1.5720 H     1 <1>   0.1500 
 26 H        1.8260     3.0240     0.7590 H     1 <1>   0.1500 
 27 H        5.1410    -0.5670     1.4350 H     1 <1>   0.1500 
 28 H        4.2410     3.5330     0.6190 H     1 <1>   0.1500 
 29 H        6.8630     1.2260     1.6600 H     1 <1>   0.0800 
 30 H        6.5120     2.8530     1.1410 H     1 <1>   0.0800 
 31 H        6.3380     2.0470    -1.2110 H     1 <1>   0.0800 
 32 H        6.6900     0.4280    -0.6650 H     1 <1>   0.0800 
 33 H        8.6880     3.7280     0.0160 H     1 <1>   0.0800 
 34 H        8.3420     3.5270    -1.7010 H     1 <1>   0.0800 
 35 H       11.3020     0.8900    -1.0480 H     1 <1>   0.0800 
 36 H       11.0510     1.6270     0.5360 H     1 <1>   0.0800 
 37 H       10.4370     2.7380    -2.1860 H     1 <1>   0.0800 
 38 H       12.9150     2.8590    -0.9230 H     1 <1>   0.3700 
 39 H       12.6440     6.5510     0.2230 H     1 <1>   0.1500 
 40 H       14.7140     8.3420     0.9570 H     1 <1>   0.0800 
 41 H       16.1450     7.9470     0.0300 H     1 <1>   0.0800 
 42 H       16.0080     7.4230     1.6940 H     1 <1>   0.0800 
@<TRIPOS>BOND
  1   1   2  1   
  2   2   3  ar  
  3   2   4  ar  
  4   3   5  ar  
  5   3  25  1   
  6   4   6  ar  
  7   4  26  1   
  8   5   7  ar  
  9   5  27  1   
 10   6   7  ar  
 11   6  28  1   
 12   7   8  1   
 13   8   9  1   
 14   8  29  1   
 15   8  30  1   
 16   9  10  1   
 17   9  31  1   
 18   9  32  1   
 19  10  11  am  
 20  10  12  1   
 21  11  13  2   
 22  11  14  1   
 23  12  15  1   
 24  12  33  1   
 25  12  34  1   
 26  14  15  1   
 27  14  35  1   
 28  14  36  1   
 29  15  16  1   
 30  15  37  1   
 31  16  17  2   
 32  16  18  am  
 33  18  19  1   
 34  18  38  1   
 35  19  20  2   
 36  19  21  1   
 37  20  22  1   
 38  21  23  2   
 39  21  39  1   
 40  22  23  1   
 41  23  24  1   
 42  24  40  1   
 43  24  41  1   
 44  24  42  1   
@<TRIPOS>SUBSTRUCTURE
  1 ****  12 GROUP 4 **** **** 0

# MOE 2024.06 (io_trps.svl 2023.06)
