@<TRIPOS>MOLECULE
6-Methyl-4-oxo-1,2-dihydro-4H-pyrrolo[3,2,1-ij]quinoline-8-sulfonic acid diethyl
42 44 1 0 0 
SMALL
USER_CHARGES


@<TRIPOS>ATOM
  1 S        0.2210     0.2630    -1.3330 S.o2  1 <1>   1.4470 
  2 O        0.5540     1.6370    -1.6490 O.2   1 <1>  -0.6500 
  3 O       -0.3510    -0.5640    -2.3740 O.2   1 <1>  -0.6500 
  4 N       -0.8580     0.2850    -0.0130 N.am  1 <1>  -0.8490 
  5 C        1.6830    -0.5970    -0.6860 C.ar  1 <1>  -0.0090 
  6 C       -2.2570     0.1230    -0.4180 C.3   1 <1>   0.1960 
  7 C       -0.7020     1.4320     0.8890 C.3   1 <1>   0.1960 
  8 C        2.9640    -0.1090    -0.9240 C.ar  1 <1>  -0.1500 
  9 C        1.5360    -1.7780     0.0540 C.ar  1 <1>  -0.1500 
 10 C       -2.6360    -1.3510    -0.3050 C.3   1 <1>  -0.2400 
 11 C        0.6090     1.3540     1.6680 C.3   1 <1>  -0.2400 
 12 C        4.1120    -0.7470    -0.4410 C.ar  1 <1>   0.0280 
 13 C        2.6490    -2.4260     0.5400 C.ar  1 <1>  -0.1430 
 14 C        5.4860    -0.3490    -0.6090 C.2   1 <1>  -0.1670 
 15 C        3.8950    -1.9110     0.2920 C.ar  1 <1>   0.1170 
 16 C        2.8030    -3.6940     1.3590 C.3   1 <1>  -0.0170 
 17 C        6.4750    -1.1080    -0.0600 C.2   1 <1>  -0.1360 
 18 C        5.7990     0.9140    -1.3980 C.3   1 <1>  -0.1020 
 19 N        4.9000    -2.6620     0.8380 N.am  1 <1>  -0.4770 
 20 C        4.3350    -3.8320     1.5440 C.3   1 <1>   0.1400 
 21 C        6.2150    -2.3020     0.6880 C.2   1 <1>   0.6160 
 22 O        7.1030    -2.9810     1.1770 O.2   1 <1>  -0.5700 
 23 H       -2.4120     0.4810    -1.4240 H     1 <1>   0.0800 
 24 H       -2.9130     0.6830     0.2270 H     1 <1>   0.0800 
 25 H       -1.5000     1.4240     1.6120 H     1 <1>   0.0800 
 26 H       -0.7630     2.3580     0.3390 H     1 <1>   0.0800 
 27 H        3.0740     0.7940    -1.4990 H     1 <1>   0.1500 
 28 H        0.5490    -2.1680     0.2390 H     1 <1>   0.1500 
 29 H       -2.0460    -1.9500    -0.9750 H     1 <1>   0.0800 
 30 H       -3.6710    -1.4780    -0.5660 H     1 <1>   0.0800 
 31 H       -2.4920    -1.6940     0.7030 H     1 <1>   0.0800 
 32 H        0.7190     0.3870     2.1240 H     1 <1>   0.0800 
 33 H        0.6040     2.0970     2.4440 H     1 <1>   0.0800 
 34 H        1.4510     1.5570     1.0320 H     1 <1>   0.0800 
 35 H        2.4070    -4.5430     0.8310 H     1 <1>   0.0800 
 36 H        2.3120    -3.6000     2.3110 H     1 <1>   0.0800 
 37 H        7.5130    -0.8550    -0.1560 H     1 <1>   0.1500 
 38 H        5.3360     1.7650    -0.9320 H     1 <1>   0.0800 
 39 H        5.4310     0.8210    -2.4040 H     1 <1>   0.0800 
 40 H        6.8600     1.0860    -1.4390 H     1 <1>   0.0800 
 41 H        4.7060    -4.7370     1.0980 H     1 <1>   0.0800 
 42 H        4.6110    -3.7940     2.5840 H     1 <1>   0.0800 
@<TRIPOS>BOND
  1   1   2  2   
  2   1   3  2   
  3   1   4  am  
  4   1   5  1   
  5   4   6  1   
  6   4   7  1   
  7   5   8  ar  
  8   5   9  ar  
  9   6  10  1   
 10   6  23  1   
 11   6  24  1   
 12   7  11  1   
 13   7  25  1   
 14   7  26  1   
 15   8  12  ar  
 16   8  27  1   
 17   9  13  ar  
 18   9  28  1   
 19  10  29  1   
 20  10  30  1   
 21  10  31  1   
 22  11  32  1   
 23  11  33  1   
 24  11  34  1   
 25  12  14  1   
 26  12  15  ar  
 27  13  15  ar  
 28  13  16  1   
 29  14  17  2   
 30  14  18  1   
 31  15  19  1   
 32  16  20  1   
 33  16  35  1   
 34  16  36  1   
 35  17  21  1   
 36  17  37  1   
 37  18  38  1   
 38  18  39  1   
 39  18  40  1   
 40  19  20  1   
 41  19  21  am  
 42  20  41  1   
 43  20  42  1   
 44  21  22  2   
@<TRIPOS>SUBSTRUCTURE
  1 ****   5 GROUP 4 **** **** 0

# MOE 2024.06 (io_trps.svl 2023.06)
