@<TRIPOS>MOLECULE
1-(Furan-2-carbonyl)-piperidine-4-carboxylic acid (2-ethoxy-phenyl)-amide
47 49 1 0 0 
SMALL
USER_CHARGES


@<TRIPOS>ATOM
  1 O        0.1260     1.7140     2.0520 O.2   1 <1>  -0.5700 
  2 C       -0.1540     2.2620     1.0000 C.2   1 <1>   0.7150 
  3 N        0.8690     2.8420     0.2660 N.am  1 <1>  -0.6600 
  4 C       -1.5250     2.2700     0.5320 C.2   1 <1>   0.0550 
  5 C        0.6410     3.9020    -0.7550 C.3   1 <1>   0.1400 
  6 C        2.3010     2.5780     0.5840 C.3   1 <1>   0.1400 
  7 O       -2.5330     2.5290     1.3620 O.3   1 <1>  -0.2800 
  8 C       -2.0450     2.0370    -0.7070 C.2   1 <1>  -0.1500 
  9 C        1.3270     5.2000    -0.3190 C.3   1 <1>  -0.1600 
 10 C        2.9830     3.8720     1.0340 C.3   1 <1>  -0.1600 
 11 C       -3.6620     2.4710     0.6950 C.2   1 <1>  -0.0100 
 12 C       -3.4300     2.1710    -0.6000 C.2   1 <1>  -0.1500 
 13 C        2.8240     4.9880    -0.0140 C.3   1 <1>  -0.0190 
 14 C        3.5320     6.2680     0.4340 C.2   1 <1>   0.5690 
 15 O        2.8870     7.1770     0.8990 O.2   1 <1>  -0.5700 
 16 N        4.8890     6.3050     0.2790 N.am  1 <1>  -0.5470 
 17 C        5.8760     7.2660     0.5660 C.ar  1 <1>   0.1170 
 18 C        7.2090     6.9250     0.3100 C.ar  1 <1>   0.0820 
 19 C        5.5940     8.5250     1.0860 C.ar  1 <1>  -0.1500 
 20 O        7.4430     5.6780    -0.2010 O.3   1 <1>  -0.3630 
 21 C        8.2260     7.8380     0.5740 C.ar  1 <1>  -0.1500 
 22 C        6.6090     9.4280     1.3470 C.ar  1 <1>  -0.1500 
 23 C        8.7520     5.2350    -0.4780 C.3   1 <1>   0.1200 
 24 C        7.9240     9.0850     1.0920 C.ar  1 <1>  -0.1500 
 25 C        8.6620     3.8120    -1.0210 C.3   1 <1>  -0.2400 
 26 H       -0.4090     4.0970    -0.8830 H     1 <1>   0.0800 
 27 H        1.0410     3.5740    -1.6990 H     1 <1>   0.0800 
 28 H        2.7870     2.1930    -0.2960 H     1 <1>   0.0800 
 29 H        2.3920     1.8350     1.3590 H     1 <1>   0.0800 
 30 H       -1.5110     1.7890    -1.6060 H     1 <1>   0.1500 
 31 H        0.8260     5.5750     0.5580 H     1 <1>   0.0800 
 32 H        1.2170     5.9390    -1.0930 H     1 <1>   0.0800 
 33 H        4.0260     3.6750     1.2090 H     1 <1>   0.0800 
 34 H        2.5490     4.1860     1.9690 H     1 <1>   0.0800 
 35 H       -4.5860     2.6560     1.2160 H     1 <1>   0.1500 
 36 H       -4.1410     2.0500    -1.3990 H     1 <1>   0.1500 
 37 H        3.2960     4.6650    -0.9250 H     1 <1>   0.0800 
 38 H        5.3130     5.4610    -0.1070 H     1 <1>   0.3700 
 39 H        4.5810     8.8130     1.2920 H     1 <1>   0.1500 
 40 H        9.2560     7.6030     0.3870 H     1 <1>   0.1500 
 41 H        6.3720    10.3970     1.7500 H     1 <1>   0.1500 
 42 H        9.3210     5.2580     0.4350 H     1 <1>   0.0800 
 43 H        9.1880     5.8940    -1.2090 H     1 <1>   0.0800 
 44 H        8.7120     9.7900     1.2960 H     1 <1>   0.1500 
 45 H        8.2120     3.1640    -0.2910 H     1 <1>   0.0800 
 46 H        9.6480     3.4450    -1.2410 H     1 <1>   0.0800 
 47 H        8.0820     3.7970    -1.9260 H     1 <1>   0.0800 
@<TRIPOS>BOND
  1   1   2  2   
  2   2   3  am  
  3   2   4  1   
  4   3   5  1   
  5   3   6  1   
  6   4   7  1   
  7   4   8  2   
  8   5   9  1   
  9   5  26  1   
 10   5  27  1   
 11   6  10  1   
 12   6  28  1   
 13   6  29  1   
 14   7  11  1   
 15   8  12  1   
 16   8  30  1   
 17   9  13  1   
 18   9  31  1   
 19   9  32  1   
 20  10  13  1   
 21  10  33  1   
 22  10  34  1   
 23  11  12  2   
 24  11  35  1   
 25  12  36  1   
 26  13  14  1   
 27  13  37  1   
 28  14  15  2   
 29  14  16  am  
 30  16  17  1   
 31  16  38  1   
 32  17  18  ar  
 33  17  19  ar  
 34  18  20  1   
 35  18  21  ar  
 36  19  22  ar  
 37  19  39  1   
 38  20  23  1   
 39  21  24  ar  
 40  21  40  1   
 41  22  24  ar  
 42  22  41  1   
 43  23  25  1   
 44  23  42  1   
 45  23  43  1   
 46  24  44  1   
 47  25  45  1   
 48  25  46  1   
 49  25  47  1   
@<TRIPOS>SUBSTRUCTURE
  1 ****  13 GROUP 4 **** **** 0

# MOE 2024.06 (io_trps.svl 2023.06)
