@<TRIPOS>MOLECULE
4-(3-Methoxy-phenyl)-2,7-dimethyl-5-oxo-1,4,5,6,7,8-hexahydro-quinoline-3-carbox
58 61 1 0 0 
SMALL
USER_CHARGES


@<TRIPOS>ATOM
  1 O        0.3340    -0.7860    -1.8870 O.2   1 <1>  -0.5700 
  2 C        0.4580    -1.6820    -1.0870 C.2   1 <1>   0.4950 
  3 C        1.7070    -2.2140    -0.6550 C.2   1 <1>  -0.1240 
  4 C       -0.8160    -2.3150    -0.5520 C.3   1 <1>  -0.0990 
  5 C        1.8210    -3.2920     0.1600 C.2   1 <1>  -0.0380 
  6 C        2.9670    -1.5070    -1.1600 C.3   1 <1>   0.3400 
  7 C       -0.6010    -3.0110     0.8050 C.3   1 <1>  -0.0800 
  8 N        3.0410    -3.8350     0.4810 N.pl3 1 <1>  -0.6000 
  9 C        0.5950    -3.9780     0.7460 C.3   1 <1>  -0.0220 
 10 C        4.2560    -2.2870    -0.8770 C.2   1 <1>  -0.1240 
 11 C        3.0850    -0.1440    -0.4730 C.ar  1 <1>  -0.1440 
 12 C       -1.8760    -3.7370     1.2550 C.3   1 <1>  -0.2400 
 13 C        4.2200    -3.3900    -0.0800 C.2   1 <1>  -0.0380 
 14 C        5.4020    -1.7010    -1.5000 C.2   1 <1>   0.6160 
 15 C        3.1720    -0.0630     0.9100 C.ar  1 <1>  -0.1500 
 16 C        3.1140     1.0230    -1.2240 C.ar  1 <1>  -0.1500 
 17 C        5.4170    -4.2640     0.2640 C.3   1 <1>  -0.1020 
 18 O        5.3750    -1.3830    -2.6740 O.2   1 <1>  -0.5700 
 19 N        6.5260    -1.4840    -0.7510 N.am  1 <1>  -0.5470 
 20 C        3.2880     1.1710     1.5420 C.ar  1 <1>   0.0830 
 21 C        3.2290     2.2530    -0.6010 C.ar  1 <1>  -0.1500 
 22 C        7.8060    -1.0680    -1.0310 C.ar  1 <1>   0.4270 
 23 O        3.3780     1.3250     2.8870 O.3   1 <1>  -0.3620 
 24 C        3.3170     2.3250     0.7770 C.ar  1 <1>  -0.1500 
 25 N        8.6080    -1.1720     0.0180 N.ar  1 <1>  -0.6200 
 26 C        8.2300    -0.5900    -2.2710 C.ar  1 <1>  -0.1500 
 27 C        3.3760     0.2110     3.7510 C.3   1 <1>   0.0400 
 28 C        9.8620    -0.7940    -0.1580 C.ar  1 <1>   0.1670 
 29 C        9.5370    -0.2010    -2.4460 C.ar  1 <1>  -0.1500 
 30 C       10.3690    -0.3100    -1.3520 C.ar  1 <1>  -0.1500 
 31 C       10.7620    -0.9160     1.0540 C.3   1 <1>  -0.0970 
 32 H       -1.1650    -3.0230    -1.2810 H     1 <1>   0.0800 
 33 H       -1.5630    -1.5480    -0.4490 H     1 <1>   0.0800 
 34 H        2.8690    -1.3780    -2.2240 H     1 <1>   0.0800 
 35 H       -0.3720    -2.2480     1.5320 H     1 <1>   0.0800 
 36 H        3.0720    -4.6660     1.0830 H     1 <1>   0.4000 
 37 H        0.8140    -4.3200     1.7420 H     1 <1>   0.0800 
 38 H        0.3550    -4.8340     0.1400 H     1 <1>   0.0800 
 39 H       -2.1440    -4.5080     0.5550 H     1 <1>   0.0800 
 40 H       -2.6940    -3.0420     1.3290 H     1 <1>   0.0800 
 41 H       -1.7290    -4.1860     2.2220 H     1 <1>   0.0800 
 42 H        3.1480    -0.9730     1.4800 H     1 <1>   0.1500 
 43 H        3.0440     0.9780    -2.2970 H     1 <1>   0.1500 
 44 H        5.1670    -5.2990     0.1200 H     1 <1>   0.0800 
 45 H        5.6990    -4.1150     1.2910 H     1 <1>   0.0800 
 46 H        6.2640    -4.0520    -0.3610 H     1 <1>   0.0800 
 47 H        6.4230    -1.6880     0.2380 H     1 <1>   0.3700 
 48 H        3.2510     3.1530    -1.1910 H     1 <1>   0.1500 
 49 H        3.4070     3.2770     1.2680 H     1 <1>   0.1500 
 50 H        7.5440    -0.5200    -3.0910 H     1 <1>   0.1500 
 51 H        3.4620     0.5720     4.7600 H     1 <1>   0.0800 
 52 H        4.2170    -0.4160     3.5130 H     1 <1>   0.0800 
 53 H        2.4500    -0.3220     3.6300 H     1 <1>   0.0800 
 54 H        9.8930     0.1700    -3.3910 H     1 <1>   0.1500 
 55 H       11.4010    -0.0190    -1.4320 H     1 <1>   0.1500 
 56 H       10.3690    -0.3150     1.8540 H     1 <1>   0.0800 
 57 H       11.7600    -0.5890     0.8320 H     1 <1>   0.0800 
 58 H       10.7940    -1.9410     1.3750 H     1 <1>   0.0800 
@<TRIPOS>BOND
  1   1   2  2   
  2   2   3  1   
  3   2   4  1   
  4   3   5  2   
  5   3   6  1   
  6   4   7  1   
  7   4  32  1   
  8   4  33  1   
  9   5   8  1   
 10   5   9  1   
 11   6  10  1   
 12   6  11  1   
 13   6  34  1   
 14   7   9  1   
 15   7  12  1   
 16   7  35  1   
 17   8  13  1   
 18   8  36  1   
 19   9  37  1   
 20   9  38  1   
 21  10  13  2   
 22  10  14  1   
 23  11  15  ar  
 24  11  16  ar  
 25  12  39  1   
 26  12  40  1   
 27  12  41  1   
 28  13  17  1   
 29  14  18  2   
 30  14  19  am  
 31  15  20  ar  
 32  15  42  1   
 33  16  21  ar  
 34  16  43  1   
 35  17  44  1   
 36  17  45  1   
 37  17  46  1   
 38  19  22  1   
 39  19  47  1   
 40  20  23  1   
 41  20  24  ar  
 42  21  24  ar  
 43  21  48  1   
 44  22  25  ar  
 45  22  26  ar  
 46  23  27  1   
 47  24  49  1   
 48  25  28  ar  
 49  26  29  ar  
 50  26  50  1   
 51  27  51  1   
 52  27  52  1   
 53  27  53  1   
 54  28  30  ar  
 55  28  31  1   
 56  29  30  ar  
 57  29  54  1   
 58  30  55  1   
 59  31  56  1   
 60  31  57  1   
 61  31  58  1   
@<TRIPOS>SUBSTRUCTURE
  1 ****  10 GROUP 4 **** **** 0

# MOE 2024.06 (io_trps.svl 2023.06)
