@<TRIPOS>MOLECULE
4-(3-Methoxy-phenyl)-2,7-dimethyl-5-oxo-1,4,5,6,7,8-hexahydro-quinoline-3-carbox
58 61 1 0 0 
SMALL
USER_CHARGES


@<TRIPOS>ATOM
  1 O        0.2290    -0.8240    -2.1070 O.2   1 <1>  -0.5700 
  2 C        0.2890    -1.7160    -1.2940 C.2   1 <1>   0.4950 
  3 C        1.5000    -2.2580    -0.7760 C.2   1 <1>  -0.1240 
  4 C       -1.0260    -2.3310    -0.8430 C.3   1 <1>  -0.0990 
  5 C        1.5460    -3.3350     0.0470 C.2   1 <1>  -0.0380 
  6 C        2.7980    -1.5610    -1.1880 C.3   1 <1>   0.3400 
  7 C       -0.9090    -3.0270     0.5260 C.3   1 <1>  -0.0800 
  8 N        2.7370    -3.8880     0.4540 N.pl3 1 <1>  -0.6000 
  9 C        0.2780    -4.0070     0.5480 C.3   1 <1>  -0.0220 
 10 C        4.0590    -2.3440    -0.8040 C.2   1 <1>  -0.1240 
 11 C        2.8690    -0.1930    -0.5050 C.ar  1 <1>  -0.1440 
 12 C       -2.2190    -3.7370     0.8930 C.3   1 <1>  -0.2400 
 13 C        3.9580    -3.4470    -0.0130 C.2   1 <1>  -0.0380 
 14 C        5.2520    -1.7610    -1.3350 C.2   1 <1>   0.6160 
 15 C        2.8530    -0.1010     0.8790 C.ar  1 <1>  -0.1500 
 16 C        2.9600     0.9700    -1.2560 C.ar  1 <1>  -0.1500 
 17 C        5.1210    -4.3210     0.4290 C.3   1 <1>  -0.1020 
 18 O        5.3200    -1.4470    -2.5080 O.2   1 <1>  -0.5700 
 19 N        6.3130    -1.5440    -0.4980 N.am  1 <1>  -0.5470 
 20 C        2.9260     1.1270     1.5140 C.ar  1 <1>   0.0830 
 21 C        3.0340     2.2030    -0.6310 C.ar  1 <1>  -0.1500 
 22 C        7.6180    -1.1540    -0.6850 C.ar  1 <1>   0.4270 
 23 O        2.9040     1.1150     2.8710 O.3   1 <1>  -0.3620 
 24 C        3.0180     2.2870     0.7500 C.ar  1 <1>  -0.1500 
 25 N        8.3510    -1.3060     0.4080 N.ar  1 <1>  -0.6200 
 26 C        8.1300    -0.6530    -1.8810 C.ar  1 <1>  -0.1500 
 27 C        2.9990     2.3100     3.6130 C.3   1 <1>   0.0400 
 28 C        9.6230    -0.9550     0.3090 C.ar  1 <1>   0.1600 
 29 C        9.4550    -0.2950    -1.9680 C.ar  1 <1>  -0.1500 
 30 C       10.2250    -0.4520    -0.8330 C.ar  1 <1>  -0.1430 
 31 C       11.6970    -0.0750    -0.8580 C.3   1 <1>  -0.0970 
 32 H       -1.3340    -3.0370    -1.5920 H     1 <1>   0.0800 
 33 H       -1.7680    -1.5550    -0.7910 H     1 <1>   0.0800 
 34 H        2.7820    -1.4390    -2.2580 H     1 <1>   0.0800 
 35 H       -0.7190    -2.2650     1.2660 H     1 <1>   0.0800 
 36 H        2.7180    -4.7050     1.0740 H     1 <1>   0.4000 
 37 H        0.4250    -4.3480     1.5580 H     1 <1>   0.0800 
 38 H        0.0700    -4.8620    -0.0700 H     1 <1>   0.0800 
 39 H       -2.4490    -4.5070     0.1780 H     1 <1>   0.0800 
 40 H       -3.0320    -3.0320     0.9110 H     1 <1>   0.0800 
 41 H       -2.1420    -4.1850     1.8680 H     1 <1>   0.0800 
 42 H        2.7820    -0.9890     1.4820 H     1 <1>   0.1500 
 43 H        2.9720     0.9190    -2.3310 H     1 <1>   0.1500 
 44 H        4.8820    -5.3560     0.2680 H     1 <1>   0.0800 
 45 H        5.3180    -4.1690     1.4750 H     1 <1>   0.0800 
 46 H        6.0170    -4.1110    -0.1260 H     1 <1>   0.0800 
 47 H        6.1300    -1.7480     0.4800 H     1 <1>   0.3700 
 48 H        3.1030     3.0970    -1.2250 H     1 <1>   0.1500 
 49 H        3.0760     3.2550     1.2080 H     1 <1>   0.1500 
 50 H        7.4980    -0.5410    -2.7390 H     1 <1>   0.1500 
 51 H        2.1650     2.9410     3.3650 H     1 <1>   0.0800 
 52 H        3.9320     2.7910     3.3790 H     1 <1>   0.0800 
 53 H        2.9690     2.0570     4.6570 H     1 <1>   0.0800 
 54 H       10.2210    -1.0760     1.1960 H     1 <1>   0.1500 
 55 H        9.8690     0.0930    -2.8830 H     1 <1>   0.1500 
 56 H       12.2080    -0.6450    -1.6130 H     1 <1>   0.0800 
 57 H       12.1610    -0.2700     0.0910 H     1 <1>   0.0800 
 58 H       11.8020     0.9720    -1.0830 H     1 <1>   0.0800 
@<TRIPOS>BOND
  1   1   2  2   
  2   2   3  1   
  3   2   4  1   
  4   3   5  2   
  5   3   6  1   
  6   4   7  1   
  7   4  32  1   
  8   4  33  1   
  9   5   8  1   
 10   5   9  1   
 11   6  10  1   
 12   6  11  1   
 13   6  34  1   
 14   7   9  1   
 15   7  12  1   
 16   7  35  1   
 17   8  13  1   
 18   8  36  1   
 19   9  37  1   
 20   9  38  1   
 21  10  13  2   
 22  10  14  1   
 23  11  15  ar  
 24  11  16  ar  
 25  12  39  1   
 26  12  40  1   
 27  12  41  1   
 28  13  17  1   
 29  14  18  2   
 30  14  19  am  
 31  15  20  ar  
 32  15  42  1   
 33  16  21  ar  
 34  16  43  1   
 35  17  44  1   
 36  17  45  1   
 37  17  46  1   
 38  19  22  1   
 39  19  47  1   
 40  20  23  1   
 41  20  24  ar  
 42  21  24  ar  
 43  21  48  1   
 44  22  25  ar  
 45  22  26  ar  
 46  23  27  1   
 47  24  49  1   
 48  25  28  ar  
 49  26  29  ar  
 50  26  50  1   
 51  27  51  1   
 52  27  52  1   
 53  27  53  1   
 54  28  30  ar  
 55  28  54  1   
 56  29  30  ar  
 57  29  55  1   
 58  30  31  1   
 59  31  56  1   
 60  31  57  1   
 61  31  58  1   
@<TRIPOS>SUBSTRUCTURE
  1 ****  10 GROUP 4 **** **** 0

# MOE 2024.06 (io_trps.svl 2023.06)
