@<TRIPOS>MOLECULE
(2-Ethyl-piperidin-1-yl)-acetic acid
29 29 1 0 0 
SMALL
USER_CHARGES


@<TRIPOS>ATOM
  1 O        1.3840     1.3280    -1.4970 O.co2 1 <1>  -0.9000 
  2 C        1.2020     0.9160    -0.3420 C.2   1 <1>   0.9060 
  3 O        0.0990     0.8070     0.1890 O.co2 1 <1>  -0.9000 
  4 C        2.4630     0.6160     0.4710 C.3   1 <1>   0.2370 
  5 N        3.6710     1.3850    -0.0490 N.4   1 <1>  -0.9590 
  6 C        5.0140     0.8420     0.2940 C.3   1 <1>   0.4230 
  7 C        3.4720     2.8250     0.2720 C.3   1 <1>   0.3430 
  8 C        6.0940     1.7120    -0.3760 C.3   1 <1>  -0.1600 
  9 C        5.1230    -0.6330    -0.1480 C.3   1 <1>  -0.1600 
 10 C        4.5320     3.6740    -0.4240 C.3   1 <1>  -0.1600 
 11 C        5.9430     3.2050    -0.0630 C.3   1 <1>  -0.1600 
 12 C        6.5010    -1.2720     0.0930 C.3   1 <1>  -0.2400 
 13 H        2.6210    -0.4410     0.3950 H     1 <1>   0.0800 
 14 H        2.2680     0.8620     1.4990 H     1 <1>   0.0800 
 15 H        3.5210     1.3340    -1.0760 H     1 <1>   0.4500 
 16 H        5.1460     0.8950     1.3620 H     1 <1>   0.0800 
 17 H        3.5310     2.9700     1.3380 H     1 <1>   0.0800 
 18 H        2.4930     3.1380    -0.0600 H     1 <1>   0.0800 
 19 H        6.0580     1.5630    -1.4410 H     1 <1>   0.0800 
 20 H        7.0670     1.4000    -0.0390 H     1 <1>   0.0800 
 21 H        4.8830    -0.7140    -1.1940 H     1 <1>   0.0800 
 22 H        4.4150    -1.2220     0.4050 H     1 <1>   0.0800 
 23 H        4.4050     4.7010    -0.1330 H     1 <1>   0.0800 
 24 H        4.3810     3.6170    -1.4890 H     1 <1>   0.0800 
 25 H        6.6690     3.7710    -0.6210 H     1 <1>   0.0800 
 26 H        6.1230     3.3750     0.9860 H     1 <1>   0.0800 
 27 H        7.2490    -0.8450    -0.5510 H     1 <1>   0.0800 
 28 H        6.4530    -2.3270    -0.1170 H     1 <1>   0.0800 
 29 H        6.8060    -1.1470     1.1180 H     1 <1>   0.0800 
@<TRIPOS>BOND
  1   1   2  ar  
  2   2   3  ar  
  3   2   4  1   
  4   4   5  1   
  5   4  13  1   
  6   4  14  1   
  7   5   6  1   
  8   5   7  1   
  9   5  15  1   
 10   6   8  1   
 11   6   9  1   
 12   6  16  1   
 13   7  10  1   
 14   7  17  1   
 15   7  18  1   
 16   8  11  1   
 17   8  19  1   
 18   8  20  1   
 19   9  12  1   
 20   9  21  1   
 21   9  22  1   
 22  10  11  1   
 23  10  23  1   
 24  10  24  1   
 25  11  25  1   
 26  11  26  1   
 27  12  27  1   
 28  12  28  1   
 29  12  29  1   
@<TRIPOS>SUBSTRUCTURE
  1 ****   5 GROUP 4 **** **** 0

# MOE 2024.06 (io_trps.svl 2023.06)
