@<TRIPOS>MOLECULE
3-Oxo-3,4-dihydro-2H-benzo[1,4]oxazine-6-sulfonic acid cyclohexylamide
39 41 1 0 0 
SMALL
USER_CHARGES


@<TRIPOS>ATOM
  1 S        0.1020    -0.1690     0.7130 S.o2  1 <1>   1.4470 
  2 O        0.7050    -0.9440     1.7720 O.2   1 <1>  -0.6500 
  3 O       -0.0120     1.2670     0.8300 O.2   1 <1>  -0.6500 
  4 N        0.9520    -0.3900    -0.7190 N.am  1 <1>  -0.9140 
  5 C       -1.5250    -0.8700     0.3240 C.ar  1 <1>  -0.0090 
  6 C        2.4060    -0.4680    -0.6850 C.3   1 <1>   0.2760 
  7 C       -2.6930    -0.1510     0.5560 C.ar  1 <1>  -0.1500 
  8 C       -1.6400    -2.1510    -0.2070 C.ar  1 <1>  -0.1500 
  9 C        2.8970    -1.8590    -0.2650 C.3   1 <1>  -0.1600 
 10 C        3.0640     0.6490     0.1390 C.3   1 <1>  -0.1600 
 11 C       -3.9400    -0.6830     0.2680 C.ar  1 <1>   0.1170 
 12 C       -2.8780    -2.6980    -0.5030 C.ar  1 <1>  -0.1500 
 13 C        4.4280    -1.9440    -0.3590 C.3   1 <1>  -0.1600 
 14 C        4.5950     0.5610     0.0400 C.3   1 <1>  -0.1600 
 15 N       -5.1120     0.0420     0.4900 N.am  1 <1>  -0.5470 
 16 C       -4.0270    -1.9710    -0.2660 C.ar  1 <1>   0.0830 
 17 C        5.0970    -0.8290     0.4590 C.3   1 <1>  -0.1600 
 18 C       -6.3410    -0.4990     0.3110 C.2   1 <1>   0.5690 
 19 O       -5.2280    -2.5350    -0.5760 O.3   1 <1>  -0.3630 
 20 O       -7.3380     0.1630     0.4540 O.2   1 <1>  -0.5700 
 21 C       -6.4380    -1.9820    -0.0460 C.3   1 <1>   0.1810 
 22 H        0.7340     0.4600    -1.2320 H     1 <1>   0.4200 
 23 H        2.7360    -0.3340    -1.7020 H     1 <1>   0.0800 
 24 H       -2.6260     0.8410     0.9690 H     1 <1>   0.1500 
 25 H       -0.7470    -2.7260    -0.3910 H     1 <1>   0.1500 
 26 H        2.4580    -2.6030    -0.9050 H     1 <1>   0.0800 
 27 H        2.6130    -2.0730     0.7480 H     1 <1>   0.0800 
 28 H        2.7950     0.5590     1.1770 H     1 <1>   0.0800 
 29 H        2.7400     1.6110    -0.2170 H     1 <1>   0.0800 
 30 H       -2.9530    -3.6890    -0.9170 H     1 <1>   0.1500 
 31 H        4.7300    -1.8610    -1.3890 H     1 <1>   0.0800 
 32 H        4.7580    -2.9030     0.0030 H     1 <1>   0.0800 
 33 H        5.0390     1.3090     0.6750 H     1 <1>   0.0800 
 34 H        4.9030     0.7620    -0.9720 H     1 <1>   0.0800 
 35 H       -5.0820     1.0260     0.7570 H     1 <1>   0.3700 
 36 H        6.1650    -0.8800     0.3320 H     1 <1>   0.0800 
 37 H        4.8840    -0.9820     1.5040 H     1 <1>   0.0800 
 38 H       -7.2100    -2.1250    -0.7780 H     1 <1>   0.0800 
 39 H       -6.6870    -2.5380     0.8380 H     1 <1>   0.0800 
@<TRIPOS>BOND
  1   1   2  2   
  2   1   3  2   
  3   1   4  am  
  4   1   5  1   
  5   4   6  1   
  6   4  22  1   
  7   5   7  ar  
  8   5   8  ar  
  9   6   9  1   
 10   6  10  1   
 11   6  23  1   
 12   7  11  ar  
 13   7  24  1   
 14   8  12  ar  
 15   8  25  1   
 16   9  13  1   
 17   9  26  1   
 18   9  27  1   
 19  10  14  1   
 20  10  28  1   
 21  10  29  1   
 22  11  15  1   
 23  11  16  ar  
 24  12  16  ar  
 25  12  30  1   
 26  13  17  1   
 27  13  31  1   
 28  13  32  1   
 29  14  17  1   
 30  14  33  1   
 31  14  34  1   
 32  15  18  am  
 33  15  35  1   
 34  16  19  1   
 35  17  36  1   
 36  17  37  1   
 37  18  20  2   
 38  18  21  1   
 39  19  21  1   
 40  21  38  1   
 41  21  39  1   
@<TRIPOS>SUBSTRUCTURE
  1 ****   5 GROUP 4 **** **** 0

# MOE 2024.06 (io_trps.svl 2023.06)
