@<TRIPOS>MOLECULE
7-(3,4-Dimethyl-phenoxymethyl)-1,3-dimethyl-6,7-dihydro-1H-oxazolo[2,3-f]purine-
46 49 1 0 0 
SMALL
USER_CHARGES


@<TRIPOS>ATOM
  1 O        1.2610    -0.0960     0.4840 O.2   1 <1>  -0.5700 
  2 C        2.1450     0.7170     0.2710 C.2   1 <1>   0.6900 
  3 N        1.9740     2.0360     0.6820 N.am  1 <1>  -0.4200 
  4 N        3.3090     0.3240    -0.3710 N.am  1 <1>  -0.4230 
  5 C        2.9770     2.9690     0.4920 C.2   1 <1>   0.7150 
  6 C        0.7040     2.4270     1.3610 C.3   1 <1>   0.0600 
  7 C        4.3140     1.2600    -0.5790 C.2   1 <1>   0.2900 
  8 C        3.5340    -1.0670    -0.8460 C.3   1 <1>   0.0600 
  9 O        2.8620     4.1210     0.8770 O.2   1 <1>  -0.5700 
 10 C        4.1490     2.5370    -0.1610 C.2   1 <1>  -0.2370 
 11 N        5.5040     1.0530    -1.1730 N.2   1 <1>  -0.5650 
 12 N        5.2920     3.1680    -0.5130 N.pl3 1 <1>   0.0480 
 13 C        6.0300     2.2370    -1.0980 C.2   1 <1>   0.2490 
 14 C        5.9910     4.4370    -0.4790 C.3   1 <1>   0.0960 
 15 O        7.2190     2.6850    -1.5020 O.3   1 <1>  -0.3430 
 16 C        7.3630     4.0380    -1.0700 C.3   1 <1>   0.2000 
 17 C        8.4890     4.1310    -0.0300 C.3   1 <1>   0.1200 
 18 O        9.7440     3.9140    -0.6430 O.3   1 <1>  -0.3630 
 19 C       10.4930     2.8290    -0.3290 C.ar  1 <1>   0.0820 
 20 C        9.9500     1.5800    -0.0530 C.ar  1 <1>  -0.1500 
 21 C       11.8660     2.9950    -0.2960 C.ar  1 <1>  -0.1500 
 22 C       10.7680     0.5090     0.2730 C.ar  1 <1>  -0.1440 
 23 C       12.6870     1.9310     0.0290 C.ar  1 <1>  -0.1500 
 24 C       12.1470     0.6860     0.3190 C.ar  1 <1>  -0.1440 
 25 C       10.1290    -0.8410     0.5650 C.3   1 <1>  -0.0970 
 26 C       13.0840    -0.4600     0.6730 C.3   1 <1>  -0.0970 
 27 H       -0.1330     1.9630     0.8690 H     1 <1>   0.0800 
 28 H        0.5640     3.4940     1.3340 H     1 <1>   0.0800 
 29 H        0.7310     2.1010     2.3860 H     1 <1>   0.0800 
 30 H        2.6720    -1.6840    -0.6640 H     1 <1>   0.0800 
 31 H        4.3810    -1.4860    -0.3320 H     1 <1>   0.0800 
 32 H        3.7380    -1.0540    -1.9020 H     1 <1>   0.0800 
 33 H        6.0590     4.8020     0.5300 H     1 <1>   0.0800 
 34 H        5.4850     5.1500    -1.1030 H     1 <1>   0.0800 
 35 H        7.6000     4.6470    -1.9250 H     1 <1>   0.0800 
 36 H        8.3430     3.4350     0.7780 H     1 <1>   0.0800 
 37 H        8.5200     5.1230     0.3820 H     1 <1>   0.0800 
 38 H        8.8880     1.4320    -0.1030 H     1 <1>   0.1500 
 39 H       12.2860     3.9570    -0.5220 H     1 <1>   0.1500 
 40 H       13.7510     2.0800     0.0540 H     1 <1>   0.1500 
 41 H        9.0600    -0.7950     0.4550 H     1 <1>   0.0800 
 42 H       10.3530    -1.1450     1.5710 H     1 <1>   0.0800 
 43 H       10.5040    -1.5810    -0.1190 H     1 <1>   0.0800 
 44 H       12.9870    -1.2500    -0.0490 H     1 <1>   0.0800 
 45 H       12.8440    -0.8430     1.6480 H     1 <1>   0.0800 
 46 H       14.1080    -0.1340     0.6810 H     1 <1>   0.0800 
@<TRIPOS>BOND
  1   1   2  2   
  2   2   3  am  
  3   2   4  am  
  4   3   5  am  
  5   3   6  1   
  6   4   7  1   
  7   4   8  1   
  8   5   9  2   
  9   5  10  1   
 10   6  27  1   
 11   6  28  1   
 12   6  29  1   
 13   7  10  2   
 14   7  11  1   
 15   8  30  1   
 16   8  31  1   
 17   8  32  1   
 18  10  12  1   
 19  11  13  2   
 20  12  13  1   
 21  12  14  1   
 22  13  15  1   
 23  14  16  1   
 24  14  33  1   
 25  14  34  1   
 26  15  16  1   
 27  16  17  1   
 28  16  35  1   
 29  17  18  1   
 30  17  36  1   
 31  17  37  1   
 32  18  19  1   
 33  19  20  ar  
 34  19  21  ar  
 35  20  22  ar  
 36  20  38  1   
 37  21  23  ar  
 38  21  39  1   
 39  22  24  ar  
 40  22  25  1   
 41  23  24  ar  
 42  23  40  1   
 43  24  26  1   
 44  25  41  1   
 45  25  42  1   
 46  25  43  1   
 47  26  44  1   
 48  26  45  1   
 49  26  46  1   
@<TRIPOS>SUBSTRUCTURE
  1 ****  13 GROUP 4 **** **** 0

# MOE 2024.06 (io_trps.svl 2023.06)
