@<TRIPOS>MOLECULE
1-(Furan-2-carbonyl)-piperidine-4-carboxylic acid (3-chloro-4-methyl-phenyl)-ami
43 45 1 0 0 
SMALL
USER_CHARGES


@<TRIPOS>ATOM
  1 CL      -0.4000    -0.7560     0.6820 Cl    1 <1>  -0.1770 
  2 C       -2.0120    -0.2140     0.2760 C.ar  1 <1>   0.1770 
  3 C       -2.2070     1.0460    -0.2710 C.ar  1 <1>  -0.1440 
  4 C       -3.0670    -1.0720     0.5170 C.ar  1 <1>  -0.1500 
  5 C       -3.5030     1.4320    -0.5750 C.ar  1 <1>  -0.1500 
  6 C       -1.0400     1.9840    -0.5350 C.3   1 <1>  -0.0960 
  7 C       -4.3660    -0.6890     0.2110 C.ar  1 <1>   0.1170 
  8 C       -4.5650     0.5770    -0.3350 C.ar  1 <1>  -0.1500 
  9 N       -5.4120    -1.5850     0.4810 N.am  1 <1>  -0.5470 
 10 C       -6.6780    -1.6700    -0.0340 C.2   1 <1>   0.5690 
 11 O       -7.0970    -0.9290    -0.8890 O.2   1 <1>  -0.5700 
 12 C       -7.5790    -2.7810     0.5110 C.3   1 <1>  -0.0190 
 13 C       -7.2700    -4.1280    -0.1690 C.3   1 <1>  -0.1600 
 14 C       -9.0810    -2.4620     0.3660 C.3   1 <1>  -0.1600 
 15 C       -8.1530    -5.2510     0.3800 C.3   1 <1>   0.1400 
 16 C       -9.9650    -3.5930     0.8990 C.3   1 <1>   0.1400 
 17 N       -9.5880    -4.8780     0.2460 N.am  1 <1>  -0.6600 
 18 C      -10.4440    -5.5870    -0.5820 C.2   1 <1>   0.7150 
 19 O       -9.9600    -6.3740    -1.3780 O.2   1 <1>  -0.5700 
 20 C      -11.8830    -5.4340    -0.5010 C.2   1 <1>   0.0550 
 21 O      -12.6300    -5.3640    -1.6000 O.3   1 <1>  -0.2800 
 22 C      -12.7100    -5.3440     0.5810 C.2   1 <1>  -0.1500 
 23 C      -13.8900    -5.2310    -1.2530 C.2   1 <1>  -0.0100 
 24 C      -14.0090    -5.2090     0.0910 C.2   1 <1>  -0.1500 
 25 H       -2.8650    -2.0380     0.9400 H     1 <1>   0.1500 
 26 H       -3.6960     2.4020    -1.0010 H     1 <1>   0.1500 
 27 H       -0.3480     1.5260    -1.2200 H     1 <1>   0.0800 
 28 H       -0.5260     2.1990     0.3850 H     1 <1>   0.0800 
 29 H       -1.3780     2.9110    -0.9620 H     1 <1>   0.0800 
 30 H       -5.5590     0.9070    -0.5760 H     1 <1>   0.1500 
 31 H       -5.1690    -2.3250     1.1360 H     1 <1>   0.3700 
 32 H       -7.3710    -2.8780     1.5620 H     1 <1>   0.0800 
 33 H       -6.2380    -4.3900    -0.0220 H     1 <1>   0.0800 
 34 H       -7.4360    -4.0450    -1.2310 H     1 <1>   0.0800 
 35 H       -9.3210    -2.3030    -0.6720 H     1 <1>   0.0800 
 36 H       -9.3100    -1.5530     0.8920 H     1 <1>   0.0800 
 37 H       -7.9330    -5.4170     1.4210 H     1 <1>   0.0800 
 38 H       -7.9430    -6.1660    -0.1480 H     1 <1>   0.0800 
 39 H      -10.9930    -3.3460     0.7020 H     1 <1>   0.0800 
 40 H       -9.8390    -3.6900     1.9640 H     1 <1>   0.0800 
 41 H      -12.4360    -5.3750     1.6200 H     1 <1>   0.1500 
 42 H      -14.6370    -5.1590    -2.0240 H     1 <1>   0.1500 
 43 H      -14.9020    -5.1140     0.6830 H     1 <1>   0.1500 
@<TRIPOS>BOND
  1   1   2  1   
  2   2   3  ar  
  3   2   4  ar  
  4   3   5  ar  
  5   3   6  1   
  6   4   7  ar  
  7   4  25  1   
  8   5   8  ar  
  9   5  26  1   
 10   6  27  1   
 11   6  28  1   
 12   6  29  1   
 13   7   8  ar  
 14   7   9  1   
 15   8  30  1   
 16   9  10  am  
 17   9  31  1   
 18  10  11  2   
 19  10  12  1   
 20  12  13  1   
 21  12  14  1   
 22  12  32  1   
 23  13  15  1   
 24  13  33  1   
 25  13  34  1   
 26  14  16  1   
 27  14  35  1   
 28  14  36  1   
 29  15  17  1   
 30  15  37  1   
 31  15  38  1   
 32  16  17  1   
 33  16  39  1   
 34  16  40  1   
 35  17  18  am  
 36  18  19  2   
 37  18  20  1   
 38  20  21  1   
 39  20  22  2   
 40  21  23  1   
 41  22  24  1   
 42  22  41  1   
 43  23  24  2   
 44  23  42  1   
 45  24  43  1   
@<TRIPOS>SUBSTRUCTURE
  1 ****  12 GROUP 4 **** **** 0

# MOE 2024.06 (io_trps.svl 2023.06)
