@<TRIPOS>MOLECULE
N-Cyclohexyl-N-[3-(4-methoxy-phenyl)-[1,2,4]oxadiazol-5-ylmethyl]-2,2-dimethyl-p
56 58 1 0 0 
SMALL
USER_CHARGES


@<TRIPOS>ATOM
  1 O       -0.3280     1.7550    -1.5750 O.2   1 <1>  -0.5700 
  2 C        0.3240     2.3170    -0.7250 C.2   1 <1>   0.5690 
  3 N        1.4990     2.9190    -1.0730 N.am  1 <1>  -0.6600 
  4 C       -0.1450     2.2430     0.7540 C.3   1 <1>   0.0610 
  5 C        1.5690     4.3290    -1.5680 C.3   1 <1>   0.2200 
  6 C        2.5350     2.0120    -1.6580 C.3   1 <1>   0.3200 
  7 C        0.6490     3.1630     1.7060 C.3   1 <1>  -0.2400 
  8 C        0.0240     0.7980     1.2590 C.3   1 <1>  -0.2400 
  9 C       -1.6350     2.6220     0.8680 C.3   1 <1>  -0.2400 
 10 C        2.5910     5.1260    -0.7430 C.3   1 <1>  -0.1600 
 11 C        0.1990     5.0340    -1.5700 C.3   1 <1>  -0.1600 
 12 C        3.7630     1.9040    -0.7670 C.2   1 <1>   0.2980 
 13 C        2.7000     6.5800    -1.2270 C.3   1 <1>  -0.1600 
 14 C        0.3150     6.4820    -2.0680 C.3   1 <1>  -0.1600 
 15 O        3.6210     1.3980     0.4290 O.3   1 <1>  -0.0190 
 16 N        4.9430     2.2610    -1.0710 N.2   1 <1>  -0.5650 
 17 C        1.3300     7.2710    -1.2330 C.3   1 <1>  -0.1600 
 18 N        4.8130     1.4450     0.9360 N.2   1 <1>  -0.4100 
 19 C        5.5980     1.9570     0.0550 C.2   1 <1>   0.4620 
 20 C        7.0220     2.1950     0.2240 C.ar  1 <1>   0.0540 
 21 C        7.8010     2.7500    -0.7940 C.ar  1 <1>  -0.1500 
 22 C        7.6710     1.8800     1.4200 C.ar  1 <1>  -0.1500 
 23 C        9.1540     2.9760    -0.6260 C.ar  1 <1>  -0.1500 
 24 C        9.0250     2.1040     1.5960 C.ar  1 <1>  -0.1500 
 25 C        9.7790     2.6570     0.5670 C.ar  1 <1>   0.0820 
 26 O       11.1070     2.9110     0.6530 O.3   1 <1>  -0.3620 
 27 C       11.8370     2.6190     1.8230 C.3   1 <1>   0.0400 
 28 H        1.9090     4.3140    -2.5900 H     1 <1>   0.0800 
 29 H        2.8320     2.3660    -2.6280 H     1 <1>   0.0800 
 30 H        2.1250     1.0250    -1.7860 H     1 <1>   0.0800 
 31 H        1.7000     2.9410     1.6610 H     1 <1>   0.0800 
 32 H        0.3220     3.0290     2.7220 H     1 <1>   0.0800 
 33 H        0.5050     4.1940     1.4450 H     1 <1>   0.0800 
 34 H        1.0580     0.5060     1.2200 H     1 <1>   0.0800 
 35 H       -0.5410     0.1200     0.6420 H     1 <1>   0.0800 
 36 H       -0.3210     0.7010     2.2730 H     1 <1>   0.0800 
 37 H       -1.7960     3.6260     0.5210 H     1 <1>   0.0800 
 38 H       -1.9720     2.5520     1.8860 H     1 <1>   0.0800 
 39 H       -2.2350     1.9610     0.2660 H     1 <1>   0.0800 
 40 H        3.5610     4.6720    -0.8200 H     1 <1>   0.0800 
 41 H        2.3020     5.1250     0.2920 H     1 <1>   0.0800 
 42 H       -0.2060     5.0520    -0.5770 H     1 <1>   0.0800 
 43 H       -0.4810     4.5000    -2.2110 H     1 <1>   0.0800 
 44 H        3.1100     6.5950    -2.2220 H     1 <1>   0.0800 
 45 H        3.3740     7.1220    -0.5860 H     1 <1>   0.0800 
 46 H       -0.6480     6.9600    -2.0100 H     1 <1>   0.0800 
 47 H        0.6210     6.4830    -3.1000 H     1 <1>   0.0800 
 48 H        1.4300     8.2660    -1.6320 H     1 <1>   0.0800 
 49 H        0.9700     7.3570    -0.2210 H     1 <1>   0.0800 
 50 H        7.3420     3.0070    -1.7320 H     1 <1>   0.1500 
 51 H        7.1040     1.4510     2.2280 H     1 <1>   0.1500 
 52 H        9.7380     3.4040    -1.4220 H     1 <1>   0.1500 
 53 H        9.4730     1.8430     2.5360 H     1 <1>   0.1500 
 54 H       12.8610     2.9020     1.6570 H     1 <1>   0.0800 
 55 H       11.7760     1.5630     2.0190 H     1 <1>   0.0800 
 56 H       11.4290     3.1880     2.6400 H     1 <1>   0.0800 
@<TRIPOS>BOND
  1   1   2  2   
  2   2   3  am  
  3   2   4  1   
  4   3   5  1   
  5   3   6  1   
  6   4   7  1   
  7   4   8  1   
  8   4   9  1   
  9   5  10  1   
 10   5  11  1   
 11   5  28  1   
 12   6  12  1   
 13   6  29  1   
 14   6  30  1   
 15   7  31  1   
 16   7  32  1   
 17   7  33  1   
 18   8  34  1   
 19   8  35  1   
 20   8  36  1   
 21   9  37  1   
 22   9  38  1   
 23   9  39  1   
 24  10  13  1   
 25  10  40  1   
 26  10  41  1   
 27  11  14  1   
 28  11  42  1   
 29  11  43  1   
 30  12  15  1   
 31  12  16  2   
 32  13  17  1   
 33  13  44  1   
 34  13  45  1   
 35  14  17  1   
 36  14  46  1   
 37  14  47  1   
 38  15  18  1   
 39  16  19  1   
 40  17  48  1   
 41  17  49  1   
 42  18  19  2   
 43  19  20  1   
 44  20  21  ar  
 45  20  22  ar  
 46  21  23  ar  
 47  21  50  1   
 48  22  24  ar  
 49  22  51  1   
 50  23  25  ar  
 51  23  52  1   
 52  24  25  ar  
 53  24  53  1   
 54  25  26  1   
 55  26  27  1   
 56  27  54  1   
 57  27  55  1   
 58  27  56  1   
@<TRIPOS>SUBSTRUCTURE
  1 ****  12 GROUP 4 **** **** 0

# MOE 2024.06 (io_trps.svl 2023.06)
