@<TRIPOS>MOLECULE
1-(Furan-2-carbonyl)-piperidine-4-carboxylic acid (2-fluoro-phenyl)-amide
40 42 1 0 0 
SMALL
USER_CHARGES


@<TRIPOS>ATOM
  1 F       -1.0740     0.2090     1.5600 F     1 <1>  -0.1900 
  2 C       -1.1920     1.2290     0.7430 C.ar  1 <1>   0.1900 
  3 C       -2.4270     1.4630     0.1390 C.ar  1 <1>   0.1170 
  4 C       -0.0780     2.0160     0.5270 C.ar  1 <1>  -0.1500 
  5 N       -3.5100     0.6040     0.4220 N.am  1 <1>  -0.5470 
  6 C       -2.5020     2.5580    -0.7200 C.ar  1 <1>  -0.1500 
  7 C       -0.1850     3.0960    -0.3320 C.ar  1 <1>  -0.1500 
  8 C       -4.8000     0.5530    -0.0330 C.2   1 <1>   0.5690 
  9 C       -1.3960     3.3620    -0.9520 C.ar  1 <1>  -0.1500 
 10 O       -5.2520     1.3290    -0.8380 O.2   1 <1>  -0.5700 
 11 C       -5.6890    -0.5610     0.5250 C.3   1 <1>  -0.0190 
 12 C       -5.4400    -1.8880    -0.2130 C.3   1 <1>  -0.1600 
 13 C       -7.1910    -0.2150     0.4740 C.3   1 <1>  -0.1600 
 14 C       -6.3080    -3.0160     0.3510 C.3   1 <1>   0.1400 
 15 C       -8.0610    -1.3490     1.0230 C.3   1 <1>   0.1400 
 16 N       -7.7430    -2.6190     0.3120 N.am  1 <1>  -0.6600 
 17 C       -8.6590    -3.2950    -0.4780 C.2   1 <1>   0.7150 
 18 O       -8.2380    -4.0690    -1.3210 O.2   1 <1>  -0.5700 
 19 C      -10.0880    -3.1230    -0.3050 C.2   1 <1>   0.0550 
 20 O      -10.8990    -3.0120    -1.3540 O.3   1 <1>  -0.2800 
 21 C      -10.8460    -3.0520     0.8270 C.2   1 <1>  -0.1500 
 22 C      -12.1330    -2.8700    -0.9280 C.2   1 <1>  -0.0100 
 23 C      -12.1700    -2.8850     0.4210 C.2   1 <1>  -0.1500 
 24 H        0.8500     1.7890     1.0200 H     1 <1>   0.1500 
 25 H       -3.2610    -0.1300     1.0850 H     1 <1>   0.3700 
 26 H       -3.4230     2.7970    -1.2180 H     1 <1>   0.1500 
 27 H        0.6680     3.7270    -0.5190 H     1 <1>   0.1500 
 28 H       -1.4810     4.2010    -1.6200 H     1 <1>   0.1500 
 29 H       -5.4250    -0.6950     1.5590 H     1 <1>   0.0800 
 30 H       -4.4050    -2.1690    -0.1320 H     1 <1>   0.0800 
 31 H       -5.6630    -1.7700    -1.2600 H     1 <1>   0.0800 
 32 H       -7.4850    -0.0210    -0.5440 H     1 <1>   0.0800 
 33 H       -7.3750     0.6820     1.0380 H     1 <1>   0.0800 
 34 H       -6.0310    -3.2190     1.3710 H     1 <1>   0.0800 
 35 H       -6.1430    -3.9160    -0.2180 H     1 <1>   0.0800 
 36 H       -9.0950    -1.0800     0.8940 H     1 <1>   0.0800 
 37 H       -7.8750    -1.4790     2.0760 H     1 <1>   0.0800 
 38 H      -10.5100    -3.1170     1.8460 H     1 <1>   0.1500 
 39 H      -12.9250    -2.7660    -1.6490 H     1 <1>   0.1500 
 40 H      -13.0240    -2.7940     1.0690 H     1 <1>   0.1500 
@<TRIPOS>BOND
  1   1   2  1   
  2   2   3  ar  
  3   2   4  ar  
  4   3   5  1   
  5   3   6  ar  
  6   4   7  ar  
  7   4  24  1   
  8   5   8  am  
  9   5  25  1   
 10   6   9  ar  
 11   6  26  1   
 12   7   9  ar  
 13   7  27  1   
 14   8  10  2   
 15   8  11  1   
 16   9  28  1   
 17  11  12  1   
 18  11  13  1   
 19  11  29  1   
 20  12  14  1   
 21  12  30  1   
 22  12  31  1   
 23  13  15  1   
 24  13  32  1   
 25  13  33  1   
 26  14  16  1   
 27  14  34  1   
 28  14  35  1   
 29  15  16  1   
 30  15  36  1   
 31  15  37  1   
 32  16  17  am  
 33  17  18  2   
 34  17  19  1   
 35  19  20  1   
 36  19  21  2   
 37  20  22  1   
 38  21  23  1   
 39  21  38  1   
 40  22  23  2   
 41  22  39  1   
 42  23  40  1   
@<TRIPOS>SUBSTRUCTURE
  1 ****  11 GROUP 4 **** **** 0

# MOE 2024.06 (io_trps.svl 2023.06)
