@<TRIPOS>MOLECULE
2-Benzothiazol-2-yl-cyclohexanecarboxylic acid
32 34 1 0 0 
SMALL
USER_CHARGES


@<TRIPOS>ATOM
  1 S        0.1380     0.5380     1.3660 S.3   1 <1>  -0.0800 
  2 C       -1.4940     0.8330     0.8140 C.ar  1 <1>   0.0400 
  3 C        0.7620     1.2910    -0.1050 C.2   1 <1>   0.1980 
  4 C       -1.4210     1.4770    -0.4050 C.ar  1 <1>   0.2270 
  5 C       -2.6860     0.5080     1.4360 C.ar  1 <1>  -0.1500 
  6 N       -0.1400     1.7330    -0.8890 N.2   1 <1>  -0.5650 
  7 C        2.2760     1.4080    -0.2970 C.3   1 <1>   0.1000 
  8 C       -2.6080     1.8180    -1.0390 C.ar  1 <1>  -0.1500 
  9 C       -3.8610     0.8570     0.7910 C.ar  1 <1>  -0.1500 
 10 C        2.9950     0.1400    -0.8270 C.3   1 <1>  -0.1860 
 11 C        3.0010     1.9740     0.9360 C.3   1 <1>  -0.1600 
 12 C       -3.8200     1.5090    -0.4400 C.ar  1 <1>  -0.1500 
 13 C        2.4850    -1.1550    -0.2080 C.2   1 <1>   0.9060 
 14 C        4.5410     0.2370    -0.7020 C.3   1 <1>  -0.1600 
 15 C        4.4450     2.4080     0.6050 C.3   1 <1>  -0.1600 
 16 O        2.7060    -1.3860     0.9880 O.co2 1 <1>  -0.9000 
 17 O        1.9010    -1.9650    -0.9350 O.co2 1 <1>  -0.9000 
 18 C        5.0400     1.6850    -0.6200 C.3   1 <1>  -0.1600 
 19 H       -2.6820     0.0000     2.3830 H     1 <1>   0.1500 
 20 H        2.3830     2.1510    -1.0670 H     1 <1>   0.0800 
 21 H       -2.5610     2.3170    -1.9880 H     1 <1>   0.1500 
 22 H       -4.8100     0.6210     1.2400 H     1 <1>   0.1500 
 23 H        2.7540     0.0730    -1.8720 H     1 <1>   0.0800 
 24 H        3.0290     1.2060     1.6910 H     1 <1>   0.0800 
 25 H        2.4540     2.8090     1.3360 H     1 <1>   0.0800 
 26 H       -4.7400     1.7720    -0.9330 H     1 <1>   0.1500 
 27 H        4.9960    -0.2720    -1.5330 H     1 <1>   0.0800 
 28 H        4.8570    -0.2730     0.1940 H     1 <1>   0.0800 
 29 H        5.0600     2.2120     1.4660 H     1 <1>   0.0800 
 30 H        4.4690     3.4680     0.4220 H     1 <1>   0.0800 
 31 H        4.7550     2.2020    -1.5200 H     1 <1>   0.0800 
 32 H        6.1140     1.6990    -0.5600 H     1 <1>   0.0800 
@<TRIPOS>BOND
  1   1   2  1   
  2   1   3  1   
  3   2   4  ar  
  4   2   5  ar  
  5   3   6  2   
  6   3   7  1   
  7   4   6  1   
  8   4   8  ar  
  9   5   9  ar  
 10   5  19  1   
 11   7  10  1   
 12   7  11  1   
 13   7  20  1   
 14   8  12  ar  
 15   8  21  1   
 16   9  12  ar  
 17   9  22  1   
 18  10  13  1   
 19  10  14  1   
 20  10  23  1   
 21  11  15  1   
 22  11  24  1   
 23  11  25  1   
 24  12  26  1   
 25  13  16  ar  
 26  13  17  ar  
 27  14  18  1   
 28  14  27  1   
 29  14  28  1   
 30  15  18  1   
 31  15  29  1   
 32  15  30  1   
 33  18  31  1   
 34  18  32  1   
@<TRIPOS>SUBSTRUCTURE
  1 ****   3 GROUP 4 **** **** 0

# MOE 2024.06 (io_trps.svl 2023.06)
