@<TRIPOS>MOLECULE
1-Methyl-2-(tetrahydro-furan-2-ylmethoxy)-ethylamine
29 29 1 0 0 
SMALL
USER_CHARGES


@<TRIPOS>ATOM
  1 O        0.3660     0.2480     0.1750 O.3   1 <1>  -0.5600 
  2 C        1.2100     1.2830     0.5450 C.3   1 <1>   0.2000 
  3 C       -0.9410     0.7120     0.0460 C.3   1 <1>   0.1200 
  4 C        0.6540     2.4960    -0.1910 C.3   1 <1>  -0.1600 
  5 C        2.6460     0.8990     0.1700 C.3   1 <1>   0.1200 
  6 C       -0.8380     2.2080    -0.2410 C.3   1 <1>  -0.1600 
  7 O        3.5190     1.9700     0.4190 O.3   1 <1>  -0.5600 
  8 C        4.8550     1.6800     0.1060 C.3   1 <1>   0.1200 
  9 C        5.7240     2.8910     0.4940 C.3   1 <1>   0.4230 
 10 N        4.9420     4.1170     0.2770 N.4   1 <1>  -0.8530 
 11 C        7.0110     2.9800    -0.3190 C.3   1 <1>  -0.2400 
 12 H        1.1170     1.4050     1.6110 H     1 <1>   0.0800 
 13 H       -1.4580     0.5240     0.9710 H     1 <1>   0.0800 
 14 H       -1.4150     0.1750    -0.7580 H     1 <1>   0.0800 
 15 H        1.0550     2.5320    -1.1890 H     1 <1>   0.0800 
 16 H        0.8790     3.4130     0.3220 H     1 <1>   0.0800 
 17 H        2.6900     0.6510    -0.8770 H     1 <1>   0.0800 
 18 H        2.9530     0.0530     0.7610 H     1 <1>   0.0800 
 19 H       -1.3670     2.7570     0.5190 H     1 <1>   0.0800 
 20 H       -1.2590     2.4490    -1.2020 H     1 <1>   0.0800 
 21 H        4.9210     1.4830    -0.9520 H     1 <1>   0.0800 
 22 H        5.1690     0.8040     0.6490 H     1 <1>   0.0800 
 23 H        5.9680     2.8030     1.5420 H     1 <1>   0.0800 
 24 H        4.9560     4.3980    -0.7050 H     1 <1>   0.4500 
 25 H        5.2400     4.8900     0.8780 H     1 <1>   0.4500 
 26 H        3.9690     3.8470     0.5050 H     1 <1>   0.4500 
 27 H        6.8050     3.0580    -1.3720 H     1 <1>   0.0800 
 28 H        7.6000     2.0930    -0.1590 H     1 <1>   0.0800 
 29 H        7.6010     3.8240    -0.0050 H     1 <1>   0.0800 
@<TRIPOS>BOND
  1   1   2  1   
  2   1   3  1   
  3   2   4  1   
  4   2   5  1   
  5   2  12  1   
  6   3   6  1   
  7   3  13  1   
  8   3  14  1   
  9   4   6  1   
 10   4  15  1   
 11   4  16  1   
 12   5   7  1   
 13   5  17  1   
 14   5  18  1   
 15   6  19  1   
 16   6  20  1   
 17   7   8  1   
 18   8   9  1   
 19   8  21  1   
 20   8  22  1   
 21   9  10  1   
 22   9  11  1   
 23   9  23  1   
 24  10  24  1   
 25  10  25  1   
 26  10  26  1   
 27  11  27  1   
 28  11  28  1   
 29  11  29  1   
@<TRIPOS>SUBSTRUCTURE
  1 ****   7 GROUP 4 **** **** 0

# MOE 2024.06 (io_trps.svl 2023.06)
