@<TRIPOS>MOLECULE
4-tert-Butyl-N-(2-thiophen-2-yl-ethyl)-benzenesulfonamide
42 43 1 0 0 
SMALL
USER_CHARGES


@<TRIPOS>ATOM
  1 S       -0.8870    -0.0810    -0.5230 S.o2  1 <1>   1.4470 
  2 O        0.1100     0.9180    -0.8300 O.2   1 <1>  -0.6500 
  3 O       -1.9930    -0.3080    -1.4260 O.2   1 <1>  -0.6500 
  4 N       -1.5360     0.4550     0.9290 N.am  1 <1>  -0.9140 
  5 C       -0.1050    -1.6540    -0.0750 C.ar  1 <1>  -0.0090 
  6 C       -2.6990     1.3360     0.8080 C.3   1 <1>   0.1960 
  7 C        1.2570    -1.8620    -0.2430 C.ar  1 <1>  -0.1500 
  8 C       -0.8510    -2.6980     0.4520 C.ar  1 <1>  -0.1500 
  9 C       -2.3610     2.6750     0.1360 C.3   1 <1>   0.0200 
 10 C        1.8470    -3.0640     0.1050 C.ar  1 <1>  -0.1500 
 11 C       -0.2640    -3.9020     0.8020 C.ar  1 <1>  -0.1500 
 12 C       -3.4980     3.6630     0.3180 C.2   1 <1>  -0.1400 
 13 C        1.1020    -4.1100     0.6360 C.ar  1 <1>  -0.1430 
 14 S       -5.0370     3.2810    -0.4400 S.3   1 <1>  -0.0800 
 15 C       -3.5750     4.8360     0.9740 C.2   1 <1>  -0.1500 
 16 C        1.8050    -5.4330     1.0100 C.3   1 <1>   0.1440 
 17 C       -5.7570     4.7590     0.1730 C.2   1 <1>  -0.1100 
 18 C       -4.8610     5.4600     0.8920 C.2   1 <1>  -0.1500 
 19 C        0.8450    -6.4890     1.5840 C.3   1 <1>  -0.2400 
 20 C        2.4620    -6.0360    -0.2410 C.3   1 <1>  -0.2400 
 21 C        2.8820    -5.1610     2.0710 C.3   1 <1>  -0.2400 
 22 H       -0.7780     0.9830     1.3550 H     1 <1>   0.4200 
 23 H       -3.0750     1.5350     1.7970 H     1 <1>   0.0800 
 24 H       -3.4820     0.8390     0.2590 H     1 <1>   0.0800 
 25 H        1.8670    -1.0740    -0.6530 H     1 <1>   0.1500 
 26 H       -1.9110    -2.5650     0.5920 H     1 <1>   0.1500 
 27 H       -2.1930     2.5330    -0.9170 H     1 <1>   0.0800 
 28 H       -1.4720     3.0900     0.5760 H     1 <1>   0.0800 
 29 H        2.9060    -3.1740    -0.0450 H     1 <1>   0.1500 
 30 H       -0.9030    -4.6650     1.2050 H     1 <1>   0.1500 
 31 H       -2.7750     5.3030     1.5200 H     1 <1>   0.1500 
 32 H       -6.7860     4.9480    -0.0750 H     1 <1>   0.1500 
 33 H       -5.0490     6.4020     1.3760 H     1 <1>   0.1500 
 34 H        0.3760    -6.1250     2.4810 H     1 <1>   0.0800 
 35 H        1.3760    -7.3900     1.8300 H     1 <1>   0.0800 
 36 H        0.0840    -6.7370     0.8660 H     1 <1>   0.0800 
 37 H        1.7210    -6.1990    -1.0030 H     1 <1>   0.0800 
 38 H        2.9270    -6.9780    -0.0090 H     1 <1>   0.0800 
 39 H        3.2160    -5.3820    -0.6380 H     1 <1>   0.0800 
 40 H        2.4360    -4.7060     2.9380 H     1 <1>   0.0800 
 41 H        3.6390    -4.4980     1.6960 H     1 <1>   0.0800 
 42 H        3.3590    -6.0760     2.3720 H     1 <1>   0.0800 
@<TRIPOS>BOND
  1   1   2  2   
  2   1   3  2   
  3   1   4  am  
  4   1   5  1   
  5   4   6  1   
  6   4  22  1   
  7   5   7  ar  
  8   5   8  ar  
  9   6   9  1   
 10   6  23  1   
 11   6  24  1   
 12   7  10  ar  
 13   7  25  1   
 14   8  11  ar  
 15   8  26  1   
 16   9  12  1   
 17   9  27  1   
 18   9  28  1   
 19  10  13  ar  
 20  10  29  1   
 21  11  13  ar  
 22  11  30  1   
 23  12  14  1   
 24  12  15  2   
 25  13  16  1   
 26  14  17  1   
 27  15  18  1   
 28  15  31  1   
 29  16  19  1   
 30  16  20  1   
 31  16  21  1   
 32  17  18  2   
 33  17  32  1   
 34  18  33  1   
 35  19  34  1   
 36  19  35  1   
 37  19  36  1   
 38  20  37  1   
 39  20  38  1   
 40  20  39  1   
 41  21  40  1   
 42  21  41  1   
 43  21  42  1   
@<TRIPOS>SUBSTRUCTURE
  1 ****   1 GROUP 4 **** **** 0

# MOE 2024.06 (io_trps.svl 2023.06)
