@<TRIPOS>MOLECULE
6-Methyl-4-oxo-1,2-dihydro-4H-pyrrolo[3,2,1-ij]quinoline-8-sulfonic acid cyclopr
37 40 1 0 0 
SMALL
USER_CHARGES


@<TRIPOS>ATOM
  1 S        0.1560     0.4920    -1.3100 S.o2  1 <1>   1.4470 
  2 O        0.4980     1.8880    -1.4600 O.2   1 <1>  -0.6500 
  3 O       -0.5220    -0.2120    -2.3750 O.2   1 <1>  -0.6500 
  4 N       -0.8250     0.4610     0.0520 N.am  1 <1>  -0.7890 
  5 C        1.6110    -0.4530    -0.7830 C.ar  1 <1>  -0.0090 
  6 C       -2.2200     0.6790    -0.2380 C.3   1 <1>   0.1310 
  7 C        2.8790     0.1210    -0.7780 C.ar  1 <1>  -0.1500 
  8 C        1.4700    -1.7850    -0.3730 C.ar  1 <1>  -0.1500 
  9 C       -3.2040     0.3700     0.8370 C.3   1 <1>  -0.2000 
 10 C       -3.1050    -0.5110    -0.3740 C.3   1 <1>  -0.2000 
 11 C        4.0190    -0.5830    -0.3740 C.ar  1 <1>   0.0280 
 12 C        2.5750    -2.5000     0.0280 C.ar  1 <1>  -0.1430 
 13 C        5.3800    -0.1130    -0.3210 C.2   1 <1>  -0.1670 
 14 C        3.8090    -1.9010     0.0230 C.ar  1 <1>   0.1170 
 15 C        2.7340    -3.9290     0.5150 C.3   1 <1>  -0.0170 
 16 C        6.3640    -0.9550     0.1030 C.2   1 <1>  -0.1360 
 17 C        5.6880     1.3170    -0.7410 C.3   1 <1>  -0.1020 
 18 N        4.8070    -2.7340     0.4470 N.am  1 <1>  -0.4770 
 19 C        4.2530    -4.0610     0.7900 C.3   1 <1>   0.1400 
 20 C        6.1100    -2.3070     0.5050 C.2   1 <1>   0.6160 
 21 O        6.9920    -3.0590     0.8840 O.2   1 <1>  -0.5700 
 22 H       -0.5110     1.2680     0.5850 H     1 <1>   0.4200 
 23 H       -2.4030     1.5320    -0.8750 H     1 <1>   0.1000 
 24 H        2.9890     1.1430    -1.0970 H     1 <1>   0.1500 
 25 H        0.4940    -2.2420    -0.3770 H     1 <1>   0.1500 
 26 H       -4.0780     0.9880     0.9400 H     1 <1>   0.1000 
 27 H       -2.8470    -0.0110     1.7780 H     1 <1>   0.1000 
 28 H       -2.6610    -1.4870    -0.2860 H     1 <1>   0.1000 
 29 H       -3.8950    -0.4800    -1.1030 H     1 <1>   0.1000 
 30 H        2.4230    -4.6290    -0.2400 H     1 <1>   0.0800 
 31 H        2.1700    -4.0940     1.4150 H     1 <1>   0.0800 
 32 H        7.3920    -0.6550     0.1610 H     1 <1>   0.1500 
 33 H        5.4010     1.4700    -1.7660 H     1 <1>   0.0800 
 34 H        6.7390     1.5250    -0.6490 H     1 <1>   0.0800 
 35 H        5.1500     2.0090    -0.1180 H     1 <1>   0.0800 
 36 H        4.7020    -4.8130     0.1660 H     1 <1>   0.0800 
 37 H        4.4490    -4.2780     1.8260 H     1 <1>   0.0800 
@<TRIPOS>BOND
  1   1   2  2   
  2   1   3  2   
  3   1   4  am  
  4   1   5  1   
  5   4   6  1   
  6   4  22  1   
  7   5   7  ar  
  8   5   8  ar  
  9   6   9  1   
 10   6  10  1   
 11   6  23  1   
 12   7  11  ar  
 13   7  24  1   
 14   8  12  ar  
 15   8  25  1   
 16   9  10  1   
 17   9  26  1   
 18   9  27  1   
 19  10  28  1   
 20  10  29  1   
 21  11  13  1   
 22  11  14  ar  
 23  12  14  ar  
 24  12  15  1   
 25  13  16  2   
 26  13  17  1   
 27  14  18  1   
 28  15  19  1   
 29  15  30  1   
 30  15  31  1   
 31  16  20  1   
 32  16  32  1   
 33  17  33  1   
 34  17  34  1   
 35  17  35  1   
 36  18  19  1   
 37  18  20  am  
 38  19  36  1   
 39  19  37  1   
 40  20  21  2   
@<TRIPOS>SUBSTRUCTURE
  1 ****   5 GROUP 4 **** **** 0

# MOE 2024.06 (io_trps.svl 2023.06)
