@<TRIPOS>MOLECULE
(5-Amino-1-ethyl-1H-benzoimidazol-2-yl)-methanol
27 28 1 0 0 
SMALL
USER_CHARGES


@<TRIPOS>ATOM
  1 O        0.8080    -0.8750     1.6510 O.3   1 <1>  -0.6800 
  2 C        1.0550    -0.6020     0.3160 C.3   1 <1>   0.3000 
  3 C        2.5240    -0.2490     0.1620 C.2   1 <1>   0.0060 
  4 N        2.9400     0.9480    -0.0760 N.2   1 <1>  -0.5650 
  5 N        3.5210    -1.1740     0.2690 N.pl3 1 <1>   0.0480 
  6 C        4.2950     0.8300    -0.1390 C.ar  1 <1>   0.2270 
  7 C        4.6770    -0.4800     0.0730 C.ar  1 <1>  -0.1520 
  8 C        3.4170    -2.6200     0.5690 C.3   1 <1>   0.0960 
  9 C        5.2540     1.8110    -0.3750 C.ar  1 <1>  -0.1500 
 10 C        6.0260    -0.8460     0.0530 C.ar  1 <1>  -0.1500 
 11 C        3.3970    -3.4370    -0.7260 C.3   1 <1>  -0.2400 
 12 C        6.5900     1.4670    -0.3880 C.ar  1 <1>   0.1000 
 13 C        6.9670     0.1320    -0.1780 C.ar  1 <1>  -0.1500 
 14 N        7.5680     2.4280    -0.6040 N.pl3 1 <1>  -0.9000 
 15 H        1.1560    -0.1270     2.1780 H     1 <1>   0.4000 
 16 H        0.4390     0.2300     0.0220 H     1 <1>   0.0800 
 17 H        0.7950    -1.4670    -0.2670 H     1 <1>   0.0800 
 18 H        2.5230    -2.8010     1.1370 H     1 <1>   0.0800 
 19 H        4.2590    -2.9060     1.1740 H     1 <1>   0.0800 
 20 H        4.9290     2.8180    -0.5430 H     1 <1>   0.1500 
 21 H        6.3160    -1.8690     0.2120 H     1 <1>   0.1500 
 22 H        2.5480    -3.1660    -1.3280 H     1 <1>   0.0800 
 23 H        3.3290    -4.4850    -0.4940 H     1 <1>   0.0800 
 24 H        4.2980    -3.2700    -1.2880 H     1 <1>   0.0800 
 25 H        8.0110    -0.1180    -0.2060 H     1 <1>   0.1500 
 26 H        8.4630     2.2300    -0.1510 H     1 <1>   0.4000 
 27 H        7.2650     3.3860    -0.4080 H     1 <1>   0.4000 
@<TRIPOS>BOND
  1   1   2  1   
  2   1  15  1   
  3   2   3  1   
  4   2  16  1   
  5   2  17  1   
  6   3   4  2   
  7   3   5  1   
  8   4   6  1   
  9   5   7  1   
 10   5   8  1   
 11   6   7  ar  
 12   6   9  ar  
 13   7  10  ar  
 14   8  11  1   
 15   8  18  1   
 16   8  19  1   
 17   9  12  ar  
 18   9  20  1   
 19  10  13  ar  
 20  10  21  1   
 21  11  22  1   
 22  11  23  1   
 23  11  24  1   
 24  12  13  ar  
 25  12  14  1   
 26  13  25  1   
 27  14  26  1   
 28  14  27  1   
@<TRIPOS>SUBSTRUCTURE
  1 ****   7 GROUP 4 **** **** 0

# MOE 2024.06 (io_trps.svl 2023.06)
