@<TRIPOS>MOLECULE
Cyclohexanecarboxylic acid allyl-(3-phenyl-[1,2,4]oxadiazol-5-ylmethyl)-amide
47 49 1 0 0 
SMALL
USER_CHARGES


@<TRIPOS>ATOM
  1 O        0.1860     1.2120     1.1040 O.2   1 <1>  -0.5700 
  2 C        0.4010     2.3720     0.8350 C.2   1 <1>   0.5690 
  3 N        1.6480     2.9100     1.0280 N.am  1 <1>  -0.6600 
  4 C       -0.7700     3.2130     0.3010 C.3   1 <1>  -0.0190 
  5 C        2.7800     2.0360     1.4900 C.3   1 <1>   0.3200 
  6 C        1.9740     4.3560     0.9200 C.3   1 <1>   0.2780 
  7 C       -1.6450     3.7330     1.4590 C.3   1 <1>  -0.1600 
  8 C       -1.6360     2.4320    -0.7100 C.3   1 <1>  -0.1600 
  9 C        4.0100     2.1220     0.5970 C.2   1 <1>   0.2980 
 10 C        2.4370     4.6680    -0.4900 C.2   1 <1>  -0.2880 
 11 C       -2.8140     4.5850     0.9450 C.3   1 <1>  -0.1600 
 12 C       -2.8030     3.2840    -1.2300 C.3   1 <1>  -0.1600 
 13 O        3.9390     1.6410    -0.6160 O.3   1 <1>  -0.0190 
 14 N        5.1320     2.6230     0.9210 N.2   1 <1>  -0.5650 
 15 C        3.6150     5.2110    -0.8130 C.2   1 <1>  -0.3000 
 16 C       -3.6610     3.8090    -0.0720 C.3   1 <1>  -0.1600 
 17 N        5.1160     1.8590    -1.1110 N.2   1 <1>  -0.4100 
 18 C        5.8230     2.4450    -0.2110 C.2   1 <1>   0.4620 
 19 C        7.2020     2.8800    -0.3650 C.ar  1 <1>   0.0540 
 20 C        7.9060     3.4820     0.6810 C.ar  1 <1>  -0.1500 
 21 C        7.8820     2.7140    -1.5740 C.ar  1 <1>  -0.1500 
 22 C        9.2160     3.8970     0.5290 C.ar  1 <1>  -0.1500 
 23 C        9.1920     3.1270    -1.7330 C.ar  1 <1>  -0.1500 
 24 C        9.8630     3.7200    -0.6800 C.ar  1 <1>  -0.1500 
 25 H       -0.3800     4.0590    -0.2290 H     1 <1>   0.0800 
 26 H        2.4770     1.0050     1.5310 H     1 <1>   0.0800 
 27 H        3.0560     2.3300     2.4860 H     1 <1>   0.0800 
 28 H        2.7490     4.6080     1.6240 H     1 <1>   0.0800 
 29 H        1.1130     4.9530     1.1630 H     1 <1>   0.0800 
 30 H       -1.0470     4.3180     2.1350 H     1 <1>   0.0800 
 31 H       -2.0330     2.8930     2.0100 H     1 <1>   0.0800 
 32 H       -2.0310     1.5480    -0.2370 H     1 <1>   0.0800 
 33 H       -1.0250     2.1130    -1.5360 H     1 <1>   0.0800 
 34 H        1.7110     4.3970    -1.2370 H     1 <1>   0.1500 
 35 H       -2.4310     5.4780     0.4810 H     1 <1>   0.0800 
 36 H       -3.4340     4.8830     1.7730 H     1 <1>   0.0800 
 37 H       -3.4120     2.6930    -1.8910 H     1 <1>   0.0800 
 38 H       -2.4160     4.1160    -1.7940 H     1 <1>   0.0800 
 39 H        4.3750     5.4880    -0.1010 H     1 <1>   0.1500 
 40 H        3.9240     5.4160    -1.8240 H     1 <1>   0.1500 
 41 H       -4.4370     4.4470    -0.4580 H     1 <1>   0.0800 
 42 H       -4.1360     2.9780     0.4220 H     1 <1>   0.0800 
 43 H        7.4190     3.6270     1.6290 H     1 <1>   0.1500 
 44 H        7.3750     2.2540    -2.4050 H     1 <1>   0.1500 
 45 H        9.7340     4.3580     1.3530 H     1 <1>   0.1500 
 46 H        9.6910     2.9860    -2.6760 H     1 <1>   0.1500 
 47 H       10.8830     4.0420    -0.8000 H     1 <1>   0.1500 
@<TRIPOS>BOND
  1   1   2  2   
  2   2   3  am  
  3   2   4  1   
  4   3   5  1   
  5   3   6  1   
  6   4   7  1   
  7   4   8  1   
  8   4  25  1   
  9   5   9  1   
 10   5  26  1   
 11   5  27  1   
 12   6  10  1   
 13   6  28  1   
 14   6  29  1   
 15   7  11  1   
 16   7  30  1   
 17   7  31  1   
 18   8  12  1   
 19   8  32  1   
 20   8  33  1   
 21   9  13  1   
 22   9  14  2   
 23  10  15  2   
 24  10  34  1   
 25  11  16  1   
 26  11  35  1   
 27  11  36  1   
 28  12  16  1   
 29  12  37  1   
 30  12  38  1   
 31  13  17  1   
 32  14  18  1   
 33  15  39  1   
 34  15  40  1   
 35  16  41  1   
 36  16  42  1   
 37  17  18  2   
 38  18  19  1   
 39  19  20  ar  
 40  19  21  ar  
 41  20  22  ar  
 42  20  43  1   
 43  21  23  ar  
 44  21  44  1   
 45  22  24  ar  
 46  22  45  1   
 47  23  24  ar  
 48  23  46  1   
 49  24  47  1   
@<TRIPOS>SUBSTRUCTURE
  1 ****   9 GROUP 4 **** **** 0

# MOE 2024.06 (io_trps.svl 2023.06)
