@<TRIPOS>MOLECULE
{8-[(Furan-2-ylmethyl)-amino]-1,3-dimethyl-2,6-dioxo-1,2,3,6-tetrahydro-purin-7-
43 45 1 0 0 
SMALL
USER_CHARGES


@<TRIPOS>ATOM
  1 O        1.1370     0.6010     0.2540 O.2   1 <1>  -0.5760 
  2 C        2.2110     1.1610     0.1830 C.2   1 <1>   0.6850 
  3 N        2.3840     2.2330    -0.6860 N.am  1 <1>  -0.4270 
  4 N        3.2720     0.7230     0.9640 N.am  1 <1>  -0.4430 
  5 C        3.6240     2.8370    -0.8450 C.2   1 <1>   0.6980 
  6 C        1.2140     2.7090    -1.4890 C.3   1 <1>   0.0500 
  7 C        4.5000     1.3320     0.7920 C.2   1 <1>   0.4190 
  8 C        3.0930    -0.3960     1.9370 C.3   1 <1>   0.0500 
  9 O        3.7660     3.7600    -1.6280 O.2   1 <1>  -0.5760 
 10 C        4.7260     2.3460    -0.0680 C.2   1 <1>   0.2690 
 11 N        5.6620     1.0360     1.4320 N.pl3 1 <1>  -0.7050 
 12 N        6.0950     2.6710     0.0560 N.pl3 1 <1>  -0.7680 
 13 C        6.6110     1.8530     0.9850 C.cat 1 <1>   1.0680 
 14 C        6.6950     3.9140    -0.5670 C.3   1 <1>   0.4080 
 15 N        7.8510     1.7530     1.4670 N.pl3 1 <1>  -0.7190 
 16 C        6.9520     5.0450     0.4370 C.2   1 <1>   0.6540 
 17 C        9.0980     2.4070     1.0150 C.3   1 <1>   0.3400 
 18 O        6.9270     4.8470     1.6290 O.2   1 <1>  -0.5760 
 19 O        7.2180     6.2380    -0.0780 O.3   1 <1>  -0.4370 
 20 C        9.4050     2.0140    -0.4160 C.2   1 <1>  -0.0500 
 21 C        7.4800     7.3680     0.7310 C.3   1 <1>   0.0300 
 22 O       10.0030     2.9070    -1.1790 O.3   1 <1>  -0.2880 
 23 C        9.1650     0.8820    -1.1150 C.2   1 <1>  -0.1590 
 24 C       10.1620     2.3710    -2.3730 C.2   1 <1>  -0.0200 
 25 C        9.6630     1.1190    -2.4020 C.2   1 <1>  -0.1590 
 26 H        1.1190     2.1090    -2.3770 H     1 <1>   0.0710 
 27 H        1.3360     3.7400    -1.7730 H     1 <1>   0.0710 
 28 H        0.3080     2.6260    -0.9140 H     1 <1>   0.0710 
 29 H        2.0520    -0.5250     2.1810 H     1 <1>   0.0710 
 30 H        3.6230    -0.1880     2.8490 H     1 <1>   0.0710 
 31 H        3.4590    -1.3130     1.5070 H     1 <1>   0.0710 
 32 H        5.7690     0.3160     2.1380 H     1 <1>   0.4430 
 33 H        6.0450     4.3000    -1.3280 H     1 <1>   0.0710 
 34 H        7.6140     3.6750    -1.0600 H     1 <1>   0.0710 
 35 H        8.0170     1.0970     2.2240 H     1 <1>   0.4430 
 36 H        9.9180     2.1060     1.6440 H     1 <1>   0.0710 
 37 H        9.0060     3.4740     1.0940 H     1 <1>   0.0710 
 38 H        7.6580     8.2130     0.0890 H     1 <1>   0.0710 
 39 H        8.3490     7.1730     1.3350 H     1 <1>   0.0710 
 40 H        6.6250     7.5550     1.3580 H     1 <1>   0.0710 
 41 H        8.7010    -0.0370    -0.8020 H     1 <1>   0.1410 
 42 H       10.6440     2.9490    -3.1440 H     1 <1>   0.1410 
 43 H        9.6440     0.4230    -3.2230 H     1 <1>   0.1410 
@<TRIPOS>BOND
  1   1   2  2   
  2   2   3  am  
  3   2   4  am  
  4   3   5  am  
  5   3   6  1   
  6   4   7  1   
  7   4   8  1   
  8   5   9  2   
  9   5  10  1   
 10   6  26  1   
 11   6  27  1   
 12   6  28  1   
 13   7  10  2   
 14   7  11  1   
 15   8  29  1   
 16   8  30  1   
 17   8  31  1   
 18  10  12  1   
 19  11  13  ar  
 20  11  32  1   
 21  12  13  ar  
 22  12  14  1   
 23  13  15  ar  
 24  14  16  1   
 25  14  33  1   
 26  14  34  1   
 27  15  17  1   
 28  15  35  1   
 29  16  18  2   
 30  16  19  1   
 31  17  20  1   
 32  17  36  1   
 33  17  37  1   
 34  19  21  1   
 35  20  22  1   
 36  20  23  2   
 37  21  38  1   
 38  21  39  1   
 39  21  40  1   
 40  22  24  1   
 41  23  25  1   
 42  23  41  1   
 43  24  25  2   
 44  24  42  1   
 45  25  43  1   
@<TRIPOS>SUBSTRUCTURE
  1 ****  12 GROUP 4 **** **** 0

# MOE 2024.06 (io_trps.svl 2023.06)
