@<TRIPOS>MOLECULE
Benzo[1,3]dioxole-5-carboxylic acid cyclohexyl-[3-(4-methoxy-phenyl)-[1,2,4]oxad
57 61 1 0 0 
SMALL
USER_CHARGES


@<TRIPOS>ATOM
  1 O       -0.1770     0.8000     1.2040 O.2   1 <1>  -0.5700 
  2 C        0.1530     1.8550     0.6970 C.2   1 <1>   0.5440 
  3 N        1.4160     2.3320     0.9630 N.am  1 <1>  -0.6600 
  4 C       -0.7760     2.5420    -0.1750 C.ar  1 <1>   0.0860 
  5 C        1.7460     3.7470     1.3190 C.3   1 <1>   0.2200 
  6 C        2.4960     1.3480     1.2920 C.3   1 <1>   0.3200 
  7 C       -2.0560     2.8850     0.2740 C.ar  1 <1>  -0.1500 
  8 C       -0.4260     2.8610    -1.4960 C.ar  1 <1>  -0.1500 
  9 C        0.6680     4.3980     2.1990 C.3   1 <1>  -0.1600 
 10 C        2.0370     4.6000     0.0780 C.3   1 <1>  -0.1600 
 11 C        3.7670     1.6300     0.5070 C.2   1 <1>   0.2980 
 12 C       -2.9110     3.5450    -0.5820 C.ar  1 <1>   0.0820 
 13 C       -1.2990     3.5230    -2.3480 C.ar  1 <1>  -0.1500 
 14 C        1.0980     5.8120     2.6160 C.3   1 <1>  -0.1600 
 15 C        2.4750     6.0140     0.4890 C.3   1 <1>  -0.1600 
 16 O        3.7650     1.4080    -0.7810 O.3   1 <1>  -0.0190 
 17 N        4.8550     2.0870     0.9790 N.2   1 <1>  -0.5650 
 18 O       -4.1570     3.9680    -0.3450 O.3   1 <1>  -0.3630 
 19 C       -2.5450     3.8590    -1.8580 C.ar  1 <1>   0.0820 
 20 C        1.4220     6.6780     1.3900 C.3   1 <1>  -0.1600 
 21 N        4.9520     1.7580    -1.1640 N.2   1 <1>  -0.4100 
 22 C        5.6010     2.1610    -0.1280 C.2   1 <1>   0.4620 
 23 C       -4.6170     4.5820    -1.5480 C.3   1 <1>   0.4000 
 24 O       -3.5410     4.4910    -2.4790 O.3   1 <1>  -0.3630 
 25 C        6.9690     2.6490    -0.1210 C.ar  1 <1>   0.0540 
 26 C        7.5810     3.1050     1.0500 C.ar  1 <1>  -0.1500 
 27 C        7.7320     2.6860    -1.2910 C.ar  1 <1>  -0.1500 
 28 C        8.8820     3.5720     1.0510 C.ar  1 <1>  -0.1500 
 29 C        9.0350     3.1520    -1.2980 C.ar  1 <1>  -0.1500 
 30 C        9.6210     3.6010    -0.1200 C.ar  1 <1>   0.0820 
 31 O       10.8870     4.0730    -0.0350 O.3   1 <1>  -0.3630 
 32 C       11.7260     4.1360    -1.1670 C.3   1 <1>   0.0400 
 33 H        2.6480     3.7360     1.9080 H     1 <1>   0.0800 
 34 H        2.1770     0.3460     1.0660 H     1 <1>   0.0800 
 35 H        2.7080     1.3990     2.3450 H     1 <1>   0.0800 
 36 H       -2.3680     2.6370     1.2720 H     1 <1>   0.1500 
 37 H        0.5500     2.5810    -1.8530 H     1 <1>   0.1500 
 38 H        0.5080     3.7980     3.0770 H     1 <1>   0.0800 
 39 H       -0.2570     4.4760     1.6600 H     1 <1>   0.0800 
 40 H        1.1550     4.6880    -0.5260 H     1 <1>   0.0800 
 41 H        2.8150     4.1450    -0.5080 H     1 <1>   0.0800 
 42 H       -1.0290     3.7710    -3.3590 H     1 <1>   0.1500 
 43 H        1.9670     5.7510     3.2490 H     1 <1>   0.0800 
 44 H        0.3090     6.2750     3.1850 H     1 <1>   0.0800 
 45 H        2.6270     6.6140    -0.3910 H     1 <1>   0.0800 
 46 H        3.4130     5.9590     1.0150 H     1 <1>   0.0800 
 47 H        1.7810     7.6400     1.7130 H     1 <1>   0.0800 
 48 H        0.5210     6.8380     0.8220 H     1 <1>   0.0800 
 49 H       -4.8480     5.6150    -1.3610 H     1 <1>   0.0800 
 50 H       -5.4680     4.0430    -1.9260 H     1 <1>   0.0800 
 51 H        7.0310     3.0940     1.9740 H     1 <1>   0.1500 
 52 H        7.2960     2.3430    -2.2130 H     1 <1>   0.1500 
 53 H        9.3360     3.9200     1.9620 H     1 <1>   0.1500 
 54 H        9.5750     3.1580    -2.2260 H     1 <1>   0.1500 
 55 H       12.6740     4.5370    -0.8580 H     1 <1>   0.0800 
 56 H       11.2760     4.7840    -1.8990 H     1 <1>   0.0800 
 57 H       11.8590     3.1430    -1.5590 H     1 <1>   0.0800 
@<TRIPOS>BOND
  1   1   2  2   
  2   2   3  am  
  3   2   4  1   
  4   3   5  1   
  5   3   6  1   
  6   4   7  ar  
  7   4   8  ar  
  8   5   9  1   
  9   5  10  1   
 10   5  33  1   
 11   6  11  1   
 12   6  34  1   
 13   6  35  1   
 14   7  12  ar  
 15   7  36  1   
 16   8  13  ar  
 17   8  37  1   
 18   9  14  1   
 19   9  38  1   
 20   9  39  1   
 21  10  15  1   
 22  10  40  1   
 23  10  41  1   
 24  11  16  1   
 25  11  17  2   
 26  12  18  1   
 27  12  19  ar  
 28  13  19  ar  
 29  13  42  1   
 30  14  20  1   
 31  14  43  1   
 32  14  44  1   
 33  15  20  1   
 34  15  45  1   
 35  15  46  1   
 36  16  21  1   
 37  17  22  1   
 38  18  23  1   
 39  19  24  1   
 40  20  47  1   
 41  20  48  1   
 42  21  22  2   
 43  22  25  1   
 44  23  24  1   
 45  23  49  1   
 46  23  50  1   
 47  25  26  ar  
 48  25  27  ar  
 49  26  28  ar  
 50  26  51  1   
 51  27  29  ar  
 52  27  52  1   
 53  28  30  ar  
 54  28  53  1   
 55  29  30  ar  
 56  29  54  1   
 57  30  31  1   
 58  31  32  1   
 59  32  55  1   
 60  32  56  1   
 61  32  57  1   
@<TRIPOS>SUBSTRUCTURE
  1 ****  10 GROUP 4 **** **** 0

# MOE 2024.06 (io_trps.svl 2023.06)
