@<TRIPOS>MOLECULE
3-Hydroxy-4-(4-methoxy-phenoxy)-butyric acid
29 29 1 0 0 
SMALL
USER_CHARGES


@<TRIPOS>ATOM
  1 O       -1.8040    -0.0690    -0.2390 O.co2 1 <1>  -0.9000 
  2 C       -1.3610     0.9990    -0.6700 C.2   1 <1>   0.9060 
  3 O       -0.8280     1.1050    -1.7750 O.co2 1 <1>  -0.9000 
  4 C       -1.5590     2.2350     0.1570 C.3   1 <1>  -0.2660 
  5 C       -2.8660     2.8980    -0.2560 C.3   1 <1>   0.2000 
  6 O       -3.0740     3.9930     0.5680 O.3   1 <1>  -0.6800 
  7 C       -4.0780     1.9570    -0.1460 C.3   1 <1>   0.1200 
  8 O       -5.2880     2.7030    -0.1880 O.3   1 <1>  -0.3630 
  9 C       -6.4880     2.0720    -0.1140 C.ar  1 <1>   0.0820 
 10 C       -7.6180     2.8750    -0.1330 C.ar  1 <1>  -0.1500 
 11 C       -6.6320     0.6900    -0.0210 C.ar  1 <1>  -0.1500 
 12 C       -8.8820     2.3160    -0.0600 C.ar  1 <1>  -0.1500 
 13 C       -7.8960     0.1320     0.0510 C.ar  1 <1>  -0.1500 
 14 C       -9.0260     0.9340     0.0320 C.ar  1 <1>   0.0820 
 15 O      -10.2270     0.3020     0.1070 O.3   1 <1>  -0.3630 
 16 C      -11.4340     1.0300     0.0980 C.3   1 <1>   0.0400 
 17 H       -0.7340     2.8970    -0.0190 H     1 <1>   0.0800 
 18 H       -1.5850     1.9520     1.1910 H     1 <1>   0.0800 
 19 H       -2.7850     3.2520    -1.2700 H     1 <1>   0.0800 
 20 H       -4.0310     4.1930     0.5350 H     1 <1>   0.4000 
 21 H       -4.0380     1.4160     0.7830 H     1 <1>   0.0800 
 22 H       -4.0710     1.2570    -0.9640 H     1 <1>   0.0800 
 23 H       -7.4970     3.9400    -0.2060 H     1 <1>   0.1500 
 24 H       -5.7780     0.0370    -0.0060 H     1 <1>   0.1500 
 25 H       -9.7340     2.9680    -0.0780 H     1 <1>   0.1500 
 26 H       -8.0130    -0.9340     0.1220 H     1 <1>   0.1500 
 27 H      -12.2470     0.3290     0.1670 H     1 <1>   0.0800 
 28 H      -11.5030     1.5790    -0.8240 H     1 <1>   0.0800 
 29 H      -11.4500     1.6920     0.9450 H     1 <1>   0.0800 
@<TRIPOS>BOND
  1   1   2  ar  
  2   2   3  ar  
  3   2   4  1   
  4   4   5  1   
  5   4  17  1   
  6   4  18  1   
  7   5   6  1   
  8   5   7  1   
  9   5  19  1   
 10   6  20  1   
 11   7   8  1   
 12   7  21  1   
 13   7  22  1   
 14   8   9  1   
 15   9  10  ar  
 16   9  11  ar  
 17  10  12  ar  
 18  10  23  1   
 19  11  13  ar  
 20  11  24  1   
 21  12  14  ar  
 22  12  25  1   
 23  13  14  ar  
 24  13  26  1   
 25  14  15  1   
 26  15  16  1   
 27  16  27  1   
 28  16  28  1   
 29  16  29  1   
@<TRIPOS>SUBSTRUCTURE
  1 ****   9 GROUP 4 **** **** 0

# MOE 2024.06 (io_trps.svl 2023.06)
