@<TRIPOS>MOLECULE
2-(4-Chloro-phenyl)-N-[(2-morpholin-4-yl-2-oxo-ethylcarbamoyl)-methyl]-acetamide
44 45 1 0 0 
SMALL
USER_CHARGES


@<TRIPOS>ATOM
  1 CL       0.5480     1.3150     0.7670 Cl    1 <1>  -0.1770 
  2 C        1.7390     0.0930     0.4010 C.ar  1 <1>   0.1770 
  3 C        2.0980    -0.1310    -0.9150 C.ar  1 <1>  -0.1500 
  4 C        2.3050    -0.6340     1.4310 C.ar  1 <1>  -0.1500 
  5 C        3.0400    -1.1040    -1.2040 C.ar  1 <1>  -0.1500 
  6 C        3.2460    -1.6060     1.1360 C.ar  1 <1>  -0.1500 
  7 C        3.6160    -1.8450    -0.1810 C.ar  1 <1>  -0.1430 
  8 C        4.6620    -2.9110    -0.5020 C.3   1 <1>   0.0450 
  9 C        6.0870    -2.3800    -0.5250 C.2   1 <1>   0.5690 
 10 O        6.9790    -3.1240    -0.8530 O.2   1 <1>  -0.5700 
 11 N        6.3410    -1.0950    -0.1780 N.am  1 <1>  -0.7300 
 12 C        7.6770    -0.5000    -0.1620 C.3   1 <1>   0.2010 
 13 C        7.7090     0.9610     0.3300 C.2   1 <1>   0.5690 
 14 O        6.6730     1.5380     0.6380 O.2   1 <1>  -0.5700 
 15 N        8.8910     1.6160     0.4240 N.am  1 <1>  -0.7300 
 16 C       10.2650     1.1300     0.0970 C.3   1 <1>   0.2010 
 17 C       11.3440     2.2180     0.2010 C.2   1 <1>   0.5690 
 18 O       11.0220     3.2980     0.6420 O.2   1 <1>  -0.5700 
 19 N       12.6340     1.9620    -0.1980 N.am  1 <1>  -0.6600 
 20 C       13.6890     3.0220    -0.1460 C.3   1 <1>   0.1400 
 21 C       13.1520     0.6540    -0.7070 C.3   1 <1>   0.1400 
 22 C       14.9600     2.4960     0.5400 C.3   1 <1>   0.1200 
 23 C       14.4510     0.2650     0.0210 C.3   1 <1>   0.1200 
 24 O       15.3850     1.3020    -0.0550 O.3   1 <1>  -0.5600 
 25 H        1.6450     0.4500    -1.6980 H     1 <1>   0.1500 
 26 H        2.0110    -0.4380     2.4460 H     1 <1>   0.1500 
 27 H        3.3220    -1.2780    -2.2280 H     1 <1>   0.1500 
 28 H        3.6890    -2.1710     1.9390 H     1 <1>   0.1500 
 29 H        4.4510    -3.3460    -1.4610 H     1 <1>   0.0800 
 30 H        4.6110    -3.7000     0.2250 H     1 <1>   0.0800 
 31 H        5.5730    -0.4890     0.0900 H     1 <1>   0.3700 
 32 H        8.0910    -0.5290    -1.1700 H     1 <1>   0.0800 
 33 H        8.3220    -1.0910     0.4860 H     1 <1>   0.0800 
 34 H        8.8670     2.5920     0.7510 H     1 <1>   0.3700 
 35 H       10.2670     0.7450    -0.9070 H     1 <1>   0.0800 
 36 H       10.5210     0.3360     0.7750 H     1 <1>   0.0800 
 37 H       13.3350     3.8870     0.3870 H     1 <1>   0.0800 
 38 H       13.9300     3.3300    -1.1480 H     1 <1>   0.0800 
 39 H       13.3570     0.7420    -1.7600 H     1 <1>   0.0800 
 40 H       12.4310    -0.1310    -0.5720 H     1 <1>   0.0800 
 41 H       14.7800     2.3170     1.5860 H     1 <1>   0.0800 
 42 H       15.7560     3.2120     0.4440 H     1 <1>   0.0800 
 43 H       14.8880    -0.6040    -0.4380 H     1 <1>   0.0800 
 44 H       14.2590     0.0490     1.0580 H     1 <1>   0.0800 
@<TRIPOS>BOND
  1   1   2  1   
  2   2   3  ar  
  3   2   4  ar  
  4   3   5  ar  
  5   3  25  1   
  6   4   6  ar  
  7   4  26  1   
  8   5   7  ar  
  9   5  27  1   
 10   6   7  ar  
 11   6  28  1   
 12   7   8  1   
 13   8   9  1   
 14   8  29  1   
 15   8  30  1   
 16   9  10  2   
 17   9  11  am  
 18  11  12  1   
 19  11  31  1   
 20  12  13  1   
 21  12  32  1   
 22  12  33  1   
 23  13  14  2   
 24  13  15  am  
 25  15  16  1   
 26  15  34  1   
 27  16  17  1   
 28  16  35  1   
 29  16  36  1   
 30  17  18  2   
 31  17  19  am  
 32  19  20  1   
 33  19  21  1   
 34  20  22  1   
 35  20  37  1   
 36  20  38  1   
 37  21  23  1   
 38  21  39  1   
 39  21  40  1   
 40  22  24  1   
 41  22  41  1   
 42  22  42  1   
 43  23  24  1   
 44  23  43  1   
 45  23  44  1   
@<TRIPOS>SUBSTRUCTURE
  1 ****  13 GROUP 4 **** **** 0

# MOE 2024.06 (io_trps.svl 2023.06)
