@<TRIPOS>MOLECULE
1,2-Diethyl-1H-benzoimidazol-5-ylamine
30 31 1 0 0 
SMALL
USER_CHARGES


@<TRIPOS>ATOM
  1 N        0.0260     0.0140    -0.1280 N.pl3 1 <1>  -0.7000 
  2 C        1.3900    -0.0200     0.0630 C.ar  1 <1>   0.3090 
  3 C       -0.4010    -1.2220    -0.3250 C.cat 1 <1>   0.6560 
  4 C        1.7660    -1.3490    -0.0300 C.ar  1 <1>   0.3090 
  5 C        2.3250     0.9790     0.3070 C.ar  1 <1>  -0.1090 
  6 N        0.6100    -2.0820    -0.2760 N.pl3 1 <1>  -0.7640 
  7 C       -1.8590    -1.5990    -0.5730 C.3   1 <1>  -0.0160 
  8 C        3.1050    -1.7090     0.1190 C.ar  1 <1>  -0.1090 
  9 C        3.6530     0.6270     0.4570 C.ar  1 <1>   0.1000 
 10 C        0.5840    -3.5530    -0.4460 C.3   1 <1>   0.3540 
 11 C       -2.8570    -0.4360    -0.4310 C.3   1 <1>  -0.2400 
 12 C        4.0330    -0.7200     0.3590 C.ar  1 <1>  -0.1500 
 13 N        4.6170     1.5900     0.6930 N.pl3 1 <1>  -0.9000 
 14 C        0.5680    -4.2130     0.9280 C.3   1 <1>  -0.2400 
 15 H       -0.5470     0.8590    -0.1170 H     1 <1>   0.4500 
 16 H        2.0170     2.0060     0.3700 H     1 <1>   0.1500 
 17 H       -2.1310    -2.3720     0.1230 H     1 <1>   0.0800 
 18 H       -1.9380    -2.0060    -1.5650 H     1 <1>   0.0800 
 19 H        3.3990    -2.7400     0.0440 H     1 <1>   0.1500 
 20 H        1.4520    -3.8700    -1.0010 H     1 <1>   0.0800 
 21 H       -0.2900    -3.8480    -1.0030 H     1 <1>   0.0800 
 22 H       -2.8180    -0.0180     0.5600 H     1 <1>   0.0800 
 23 H       -3.8580    -0.7930    -0.6040 H     1 <1>   0.0800 
 24 H       -2.6500     0.3360    -1.1510 H     1 <1>   0.0800 
 25 H        5.0740    -0.9710     0.4710 H     1 <1>   0.1500 
 26 H        5.5210     1.2740     1.0630 H     1 <1>   0.4000 
 27 H        4.3230     2.4740     1.1240 H     1 <1>   0.4000 
 28 H        1.4500    -3.9510     1.4850 H     1 <1>   0.0800 
 29 H        0.5460    -5.2820     0.8150 H     1 <1>   0.0800 
 30 H       -0.3040    -3.9130     1.4810 H     1 <1>   0.0800 
@<TRIPOS>BOND
  1   1   2  1   
  2   1   3  ar  
  3   1  15  1   
  4   2   4  ar  
  5   2   5  ar  
  6   3   6  ar  
  7   3   7  1   
  8   4   6  1   
  9   4   8  ar  
 10   5   9  ar  
 11   5  16  1   
 12   6  10  1   
 13   7  11  1   
 14   7  17  1   
 15   7  18  1   
 16   8  12  ar  
 17   8  19  1   
 18   9  12  ar  
 19   9  13  1   
 20  10  14  1   
 21  10  20  1   
 22  10  21  1   
 23  11  22  1   
 24  11  23  1   
 25  11  24  1   
 26  12  25  1   
 27  13  26  1   
 28  13  27  1   
 29  14  28  1   
 30  14  29  1   
 31  14  30  1   
@<TRIPOS>SUBSTRUCTURE
  1 ****   4 GROUP 4 **** **** 0

# MOE 2024.06 (io_trps.svl 2023.06)
