@<TRIPOS>MOLECULE
8-(2-Methoxy-5-methyl-phenyl)-1-methyl-7,8-dihydro-1H,6H-imidazo[2,1-f]purine-2,
42 45 1 0 0 
SMALL
USER_CHARGES


@<TRIPOS>ATOM
  1 O        1.5230     2.8090    -2.9910 O.2   1 <1>  -0.5760 
  2 C        2.3790     2.5230    -2.1870 C.2   1 <1>   0.6850 
  3 N        2.9850     1.2740    -2.1650 N.am  1 <1>  -0.4430 
  4 N        2.7590     3.4680    -1.2770 N.am  1 <1>  -0.4960 
  5 C        3.9660     1.0500    -1.2100 C.2   1 <1>   0.4190 
  6 C        2.6020     0.2060    -3.1330 C.3   1 <1>   0.0500 
  7 C        3.7220     3.2700    -0.3290 C.2   1 <1>   0.6980 
  8 N        4.7040    -0.0820    -1.0130 N.pl3 1 <1>  -0.7050 
  9 C        4.3550     1.9860    -0.3060 C.2   1 <1>   0.2690 
 10 O        3.9990     4.1710     0.4370 O.2   1 <1>  -0.5760 
 11 C        5.5380     0.1640    -0.0110 C.cat 1 <1>   1.0680 
 12 N        5.3620     1.3800     0.4500 N.pl3 1 <1>  -0.7680 
 13 N        6.4940    -0.5200     0.6210 N.pl3 1 <1>  -0.5810 
 14 C        6.3010     1.6990     1.5370 C.3   1 <1>   0.3470 
 15 C        6.9490    -1.8320     0.3660 C.ar  1 <1>   0.3030 
 16 C        7.0890     0.3730     1.6660 C.3   1 <1>   0.1590 
 17 C        7.1720    -2.3110    -0.9360 C.ar  1 <1>   0.0730 
 18 C        7.1830    -2.6830     1.4400 C.ar  1 <1>  -0.1590 
 19 O        6.9500    -1.4740    -1.9930 O.3   1 <1>  -0.3700 
 20 C        7.6160    -3.6160    -1.1240 C.ar  1 <1>  -0.1590 
 21 C        7.6260    -3.9800     1.2490 C.ar  1 <1>  -0.1520 
 22 C        7.5370    -1.7300    -3.2540 C.3   1 <1>   0.0300 
 23 C        7.8410    -4.4410    -0.0370 C.ar  1 <1>  -0.1590 
 24 C        7.8780    -4.8950     2.4340 C.3   1 <1>  -0.1060 
 25 H        2.2940     4.3730    -1.3200 H     1 <1>   0.3630 
 26 H        1.7310     0.4960    -3.6970 H     1 <1>   0.0700 
 27 H        2.3750    -0.7040    -2.6060 H     1 <1>   0.0700 
 28 H        3.4120     0.0300    -3.8190 H     1 <1>   0.0700 
 29 H        4.7720    -0.9300    -1.5760 H     1 <1>   0.4430 
 30 H        5.7720     1.9360     2.4460 H     1 <1>   0.0700 
 31 H        6.9460     2.5170     1.2620 H     1 <1>   0.0700 
 32 H        8.1370     0.5290     1.4740 H     1 <1>   0.0700 
 33 H        6.9610    -0.0470     2.6480 H     1 <1>   0.0700 
 34 H        7.0150    -2.3380     2.4420 H     1 <1>   0.1410 
 35 H        7.7920    -4.0200    -2.1040 H     1 <1>   0.1410 
 36 H        7.3780    -0.8720    -3.8820 H     1 <1>   0.0700 
 37 H        7.0700    -2.5930    -3.6940 H     1 <1>   0.0700 
 38 H        8.5940    -1.8920    -3.1240 H     1 <1>   0.0700 
 39 H        8.1870    -5.4490    -0.1960 H     1 <1>   0.1410 
 40 H        7.3070    -4.5810     3.2900 H     1 <1>   0.0700 
 41 H        8.9220    -4.8820     2.6900 H     1 <1>   0.0700 
 42 H        7.5950    -5.9050     2.1930 H     1 <1>   0.0700 
@<TRIPOS>BOND
  1   1   2  2   
  2   2   3  am  
  3   2   4  am  
  4   3   5  1   
  5   3   6  1   
  6   4   7  am  
  7   4  25  1   
  8   5   8  1   
  9   5   9  2   
 10   6  26  1   
 11   6  27  1   
 12   6  28  1   
 13   7   9  1   
 14   7  10  2   
 15   8  11  ar  
 16   8  29  1   
 17   9  12  1   
 18  11  12  ar  
 19  11  13  ar  
 20  12  14  1   
 21  13  15  1   
 22  13  16  1   
 23  14  16  1   
 24  14  30  1   
 25  14  31  1   
 26  15  17  ar  
 27  15  18  ar  
 28  16  32  1   
 29  16  33  1   
 30  17  19  1   
 31  17  20  ar  
 32  18  21  ar  
 33  18  34  1   
 34  19  22  1   
 35  20  23  ar  
 36  20  35  1   
 37  21  23  ar  
 38  21  24  1   
 39  22  36  1   
 40  22  37  1   
 41  22  38  1   
 42  23  39  1   
 43  24  40  1   
 44  24  41  1   
 45  24  42  1   
@<TRIPOS>SUBSTRUCTURE
  1 ****  11 GROUP 4 **** **** 0

# MOE 2024.06 (io_trps.svl 2023.06)
