@<TRIPOS>MOLECULE
(7-Ethyl-2-methyl-thiazolo[5,4-b]indol-4-yl)-acetic acid ethyl ester
39 41 1 0 0 
SMALL
USER_CHARGES


@<TRIPOS>ATOM
  1 S       -0.2940    -0.2400    -0.1300 S.3   1 <1>  -0.0800 
  2 C       -1.9780     0.1620     0.0140 C.2   1 <1>  -0.1120 
  3 C       -0.0750     1.2910    -0.9980 C.2   1 <1>   0.1980 
  4 N       -3.0840    -0.4080     0.5540 N.pl3 1 <1>   0.0480 
  5 C       -2.2180     1.3470    -0.5690 C.2   1 <1>   0.2270 
  6 N       -1.1320     1.9920    -1.1450 N.2   1 <1>  -0.5650 
  7 C        1.3230     1.6100    -1.4710 C.3   1 <1>  -0.0600 
  8 C       -4.1150     0.4840     0.2950 C.ar  1 <1>  -0.1520 
  9 C       -3.1490    -1.6830     1.2870 C.3   1 <1>   0.1570 
 10 C       -3.6030     1.5880    -0.4030 C.ar  1 <1>   0.0000 
 11 C       -5.4740     0.4240     0.6080 C.ar  1 <1>  -0.1500 
 12 C       -3.6360    -2.7880     0.3790 C.2   1 <1>   0.6590 
 13 C       -4.4530     2.6310    -0.7790 C.ar  1 <1>  -0.1500 
 14 C       -6.2970     1.4600     0.2280 C.ar  1 <1>  -0.1500 
 15 O       -2.8950    -3.6470    -0.0240 O.2   1 <1>  -0.5700 
 16 O       -4.9270    -2.7670     0.0730 O.3   1 <1>  -0.4300 
 17 C       -5.7930     2.5680    -0.4660 C.ar  1 <1>  -0.1430 
 18 C       -5.4950    -3.7100    -0.8030 C.3   1 <1>   0.1200 
 19 C       -6.7340     3.6920    -0.8690 C.3   1 <1>  -0.0170 
 20 C       -6.9660    -3.3500    -0.9870 C.3   1 <1>  -0.2400 
 21 C       -7.0010     4.6230     0.3160 C.3   1 <1>  -0.2400 
 22 H        1.9890     1.6610    -0.6300 H     1 <1>   0.0800 
 23 H        1.3260     2.5570    -1.9790 H     1 <1>   0.0800 
 24 H        1.6600     0.8470    -2.1480 H     1 <1>   0.0800 
 25 H       -3.8170    -1.5790     2.1190 H     1 <1>   0.0800 
 26 H       -2.1700    -1.9290     1.6500 H     1 <1>   0.0800 
 27 H       -5.8740    -0.4230     1.1360 H     1 <1>   0.1500 
 28 H       -4.0310     3.4650    -1.3100 H     1 <1>   0.1500 
 29 H       -7.3450     1.4240     0.4650 H     1 <1>   0.1500 
 30 H       -5.3840    -4.6910    -0.3710 H     1 <1>   0.0800 
 31 H       -4.9670    -3.6650    -1.7410 H     1 <1>   0.0800 
 32 H       -7.6620     3.2760    -1.2220 H     1 <1>   0.0800 
 33 H       -6.3020     4.2570    -1.6760 H     1 <1>   0.0800 
 34 H       -7.4800    -3.3920    -0.0440 H     1 <1>   0.0800 
 35 H       -7.4280    -4.0480    -1.6610 H     1 <1>   0.0800 
 36 H       -7.0550    -2.3620    -1.4030 H     1 <1>   0.0800 
 37 H       -7.4560     4.0780     1.1240 H     1 <1>   0.0800 
 38 H       -7.6600     5.4200     0.0210 H     1 <1>   0.0800 
 39 H       -6.0770     5.0480     0.6660 H     1 <1>   0.0800 
@<TRIPOS>BOND
  1   1   2  1   
  2   1   3  1   
  3   2   4  1   
  4   2   5  2   
  5   3   6  2   
  6   3   7  1   
  7   4   8  1   
  8   4   9  1   
  9   5   6  1   
 10   5  10  1   
 11   7  22  1   
 12   7  23  1   
 13   7  24  1   
 14   8  10  ar  
 15   8  11  ar  
 16   9  12  1   
 17   9  25  1   
 18   9  26  1   
 19  10  13  ar  
 20  11  14  ar  
 21  11  27  1   
 22  12  15  2   
 23  12  16  1   
 24  13  17  ar  
 25  13  28  1   
 26  14  17  ar  
 27  14  29  1   
 28  16  18  1   
 29  17  19  1   
 30  18  20  1   
 31  18  30  1   
 32  18  31  1   
 33  19  21  1   
 34  19  32  1   
 35  19  33  1   
 36  20  34  1   
 37  20  35  1   
 38  20  36  1   
 39  21  37  1   
 40  21  38  1   
 41  21  39  1   
@<TRIPOS>SUBSTRUCTURE
  1 ****   8 GROUP 4 **** **** 0

# MOE 2024.06 (io_trps.svl 2023.06)
