@<TRIPOS>MOLECULE
2-(4-Methoxy-phenoxy)-N-[4-methoxy-3-(piperidine-1-sulfonyl)-phenyl]-acetamide
56 58 1 0 0 
SMALL
USER_CHARGES


@<TRIPOS>ATOM
  1 S       -0.3090    -0.8360    -1.5010 S.o2  1 <1>   1.4470 
  2 O        0.5230    -1.7750    -2.2260 O.2   1 <1>  -0.6500 
  3 O       -0.6250     0.4100    -2.1680 O.2   1 <1>  -0.6500 
  4 N        0.5280    -0.4310    -0.0820 N.am  1 <1>  -0.8490 
  5 C       -1.8660    -1.5720    -0.9270 C.ar  1 <1>  -0.0090 
  6 C        1.6170     0.5080    -0.3670 C.3   1 <1>   0.1960 
  7 C        1.0240    -1.6170     0.6240 C.3   1 <1>   0.1960 
  8 C       -2.0060    -2.9360    -0.6770 C.ar  1 <1>   0.0820 
  9 C       -2.9760    -0.7650    -0.7030 C.ar  1 <1>  -0.1500 
 10 C        2.2800     0.9770     0.9330 C.3   1 <1>  -0.1600 
 11 C        1.6630    -1.2200     1.9590 C.3   1 <1>  -0.1600 
 12 O       -0.9650    -3.7810    -0.8280 O.3   1 <1>  -0.3620 
 13 C       -3.2090    -3.4640    -0.2340 C.ar  1 <1>  -0.1500 
 14 C       -4.1930    -1.2740    -0.2620 C.ar  1 <1>   0.1170 
 15 C        2.7950    -0.2070     1.7580 C.3   1 <1>  -0.1600 
 16 C       -0.9550    -4.5570    -2.0060 C.3   1 <1>   0.0400 
 17 C       -4.2960    -2.6380    -0.0340 C.ar  1 <1>  -0.1500 
 18 N       -5.3220    -0.4680    -0.0560 N.am  1 <1>  -0.5470 
 19 C       -5.4370     0.8560     0.2710 C.2   1 <1>   0.5690 
 20 O       -4.4910     1.5780     0.4720 O.2   1 <1>  -0.5700 
 21 C       -6.8330     1.4500     0.4010 C.3   1 <1>   0.1810 
 22 O       -7.8370     0.4530     0.2410 O.3   1 <1>  -0.3630 
 23 C       -9.1540     0.7760     0.3130 C.ar  1 <1>   0.0820 
 24 C      -10.0600    -0.2570     0.1300 C.ar  1 <1>  -0.1500 
 25 C       -9.6250     2.0650     0.5540 C.ar  1 <1>  -0.1500 
 26 C      -11.4230    -0.0190     0.1850 C.ar  1 <1>  -0.1500 
 27 C      -10.9870     2.3020     0.6100 C.ar  1 <1>  -0.1500 
 28 C      -11.8930     1.2690     0.4270 C.ar  1 <1>   0.0820 
 29 O      -13.2100     1.5940     0.4980 O.3   1 <1>  -0.3620 
 30 C      -14.2120     0.6170     0.3260 C.3   1 <1>   0.0400 
 31 H        1.2280     1.3720    -0.8800 H     1 <1>   0.0800 
 32 H        2.3460     0.0380    -1.0070 H     1 <1>   0.0800 
 33 H        1.7430    -2.1380     0.0120 H     1 <1>   0.0800 
 34 H        0.2080    -2.2870     0.8290 H     1 <1>   0.0800 
 35 H       -2.8850     0.2930    -0.8840 H     1 <1>   0.1500 
 36 H        1.5570     1.5330     1.5050 H     1 <1>   0.0800 
 37 H        3.0940     1.6390     0.6990 H     1 <1>   0.0800 
 38 H        2.0460    -2.0990     2.4460 H     1 <1>   0.0800 
 39 H        0.9030    -0.7960     2.5920 H     1 <1>   0.0800 
 40 H       -3.2850    -4.5200    -0.0410 H     1 <1>   0.1500 
 41 H        3.1570     0.1370     2.7120 H     1 <1>   0.0800 
 42 H        3.6100    -0.6790     1.2370 H     1 <1>   0.0800 
 43 H       -0.0490    -5.1360    -2.0190 H     1 <1>   0.0800 
 44 H       -0.9790    -3.9000    -2.8570 H     1 <1>   0.0800 
 45 H       -1.8110    -5.2090    -2.0070 H     1 <1>   0.0800 
 46 H       -5.2250    -3.0550     0.3100 H     1 <1>   0.1500 
 47 H       -6.2250    -0.9430    -0.1140 H     1 <1>   0.3700 
 48 H       -6.9700     2.1980    -0.3580 H     1 <1>   0.0800 
 49 H       -6.9400     1.8890     1.3760 H     1 <1>   0.0800 
 50 H       -9.6950    -1.2500    -0.0560 H     1 <1>   0.1500 
 51 H       -8.9590     2.8930     0.7020 H     1 <1>   0.1500 
 52 H      -12.0970    -0.8410     0.0390 H     1 <1>   0.1500 
 53 H      -11.3610     3.2930     0.7960 H     1 <1>   0.1500 
 54 H      -15.1680     1.0990     0.4230 H     1 <1>   0.0800 
 55 H      -14.1030    -0.1340     1.0890 H     1 <1>   0.0800 
 56 H      -14.1170     0.1880    -0.6560 H     1 <1>   0.0800 
@<TRIPOS>BOND
  1   1   2  2   
  2   1   3  2   
  3   1   4  am  
  4   1   5  1   
  5   4   6  1   
  6   4   7  1   
  7   5   8  ar  
  8   5   9  ar  
  9   6  10  1   
 10   6  31  1   
 11   6  32  1   
 12   7  11  1   
 13   7  33  1   
 14   7  34  1   
 15   8  12  1   
 16   8  13  ar  
 17   9  14  ar  
 18   9  35  1   
 19  10  15  1   
 20  10  36  1   
 21  10  37  1   
 22  11  15  1   
 23  11  38  1   
 24  11  39  1   
 25  12  16  1   
 26  13  17  ar  
 27  13  40  1   
 28  14  17  ar  
 29  14  18  1   
 30  15  41  1   
 31  15  42  1   
 32  16  43  1   
 33  16  44  1   
 34  16  45  1   
 35  17  46  1   
 36  18  19  am  
 37  18  47  1   
 38  19  20  2   
 39  19  21  1   
 40  21  22  1   
 41  21  48  1   
 42  21  49  1   
 43  22  23  1   
 44  23  24  ar  
 45  23  25  ar  
 46  24  26  ar  
 47  24  50  1   
 48  25  27  ar  
 49  25  51  1   
 50  26  28  ar  
 51  26  52  1   
 52  27  28  ar  
 53  27  53  1   
 54  28  29  1   
 55  29  30  1   
 56  30  54  1   
 57  30  55  1   
 58  30  56  1   
@<TRIPOS>SUBSTRUCTURE
  1 ****  14 GROUP 4 **** **** 0

# MOE 2024.06 (io_trps.svl 2023.06)
