@<TRIPOS>MOLECULE
1-(Furan-2-carbonyl)-piperidine-4-carboxylic acid [5-(4-methoxy-benzyl)-[1,3,4]t
52 55 1 0 0 
SMALL
USER_CHARGES


@<TRIPOS>ATOM
  1 S       -0.1390     0.5860    -1.0840 S.3   1 <1>  -0.0800 
  2 C       -1.7310     0.5120    -1.7660 C.2   1 <1>   0.4420 
  3 C        0.2430     1.7680    -2.2900 C.2   1 <1>   0.1980 
  4 N       -1.8640     1.2990    -2.7700 N.2   1 <1>  -0.3380 
  5 N       -2.6160    -0.3570    -1.1610 N.am  1 <1>  -0.4940 
  6 N       -0.7350     2.0130    -3.0630 N.2   1 <1>  -0.3380 
  7 C        1.6370     2.3620    -2.3020 C.3   1 <1>   0.1640 
  8 C       -3.9180    -0.6270    -1.4760 C.2   1 <1>   0.5690 
  9 C        1.9480     3.0780    -0.9940 C.ar  1 <1>  -0.1440 
 10 O       -4.4960    -0.1040    -2.3930 O.2   1 <1>  -0.5700 
 11 C       -4.6490    -1.6500    -0.6020 C.3   1 <1>  -0.0190 
 12 C        1.2070     4.1890    -0.6200 C.ar  1 <1>  -0.1500 
 13 C        2.9660     2.6300    -0.1630 C.ar  1 <1>  -0.1500 
 14 C       -5.8890    -2.2540    -1.2950 C.3   1 <1>  -0.1600 
 15 C       -5.0630    -1.0350     0.7480 C.3   1 <1>  -0.1600 
 16 C        1.4750     4.8480     0.5670 C.ar  1 <1>  -0.1500 
 17 C        3.2360     3.2880     1.0230 C.ar  1 <1>  -0.1500 
 18 C       -6.6180    -3.2610    -0.4010 C.3   1 <1>   0.1400 
 19 C       -5.7810    -2.0560     1.6350 C.3   1 <1>   0.1400 
 20 C        2.4970     4.3980     1.3980 C.ar  1 <1>   0.0820 
 21 N       -6.9470    -2.6280     0.9060 N.am  1 <1>  -0.6600 
 22 O        2.8270     4.9830     2.5760 O.3   1 <1>  -0.3620 
 23 C       -8.2460    -2.4080     1.3360 C.2   1 <1>   0.7150 
 24 C        2.1390     6.1210     3.0460 C.3   1 <1>   0.0400 
 25 O       -8.4390    -1.5530     2.1840 O.2   1 <1>  -0.5700 
 26 C       -9.3590    -3.1840     0.8260 C.2   1 <1>   0.0550 
 27 O      -10.5160    -2.6040     0.5150 O.3   1 <1>  -0.2800 
 28 C       -9.4750    -4.5210     0.5810 C.2   1 <1>  -0.1500 
 29 C      -11.3510    -3.5200     0.0810 C.2   1 <1>  -0.0100 
 30 C      -10.7650    -4.7360     0.0960 C.2   1 <1>  -0.1500 
 31 H       -2.2400    -0.8470    -0.3570 H     1 <1>   0.3700 
 32 H        1.7110     3.0640    -3.1140 H     1 <1>   0.0800 
 33 H        2.3490     1.5770    -2.4810 H     1 <1>   0.0800 
 34 H       -3.9640    -2.4570    -0.4100 H     1 <1>   0.0800 
 35 H        0.4110     4.5450    -1.2540 H     1 <1>   0.1500 
 36 H        3.5550     1.7700    -0.4300 H     1 <1>   0.1500 
 37 H       -5.5930    -2.7380    -2.2090 H     1 <1>   0.0800 
 38 H       -6.5780    -1.4680    -1.5560 H     1 <1>   0.0800 
 39 H       -5.7230    -0.2000     0.5790 H     1 <1>   0.0800 
 40 H       -4.2000    -0.6660     1.2710 H     1 <1>   0.0800 
 41 H        0.8820     5.7040     0.8250 H     1 <1>   0.1500 
 42 H        4.0230     2.9450     1.6700 H     1 <1>   0.1500 
 43 H       -5.9950    -4.1220    -0.2280 H     1 <1>   0.0800 
 44 H       -7.5090    -3.5870    -0.9090 H     1 <1>   0.0800 
 45 H       -6.0960    -1.5810     2.5500 H     1 <1>   0.0800 
 46 H       -5.1090    -2.8550     1.8970 H     1 <1>   0.0800 
 47 H        2.5710     6.4060     3.9890 H     1 <1>   0.0800 
 48 H        1.1020     5.8720     3.1800 H     1 <1>   0.0800 
 49 H        2.2570     6.9190     2.3350 H     1 <1>   0.0800 
 50 H       -8.7310    -5.2820     0.7320 H     1 <1>   0.1500 
 51 H      -12.3420    -3.2230    -0.2160 H     1 <1>   0.1500 
 52 H      -11.1820    -5.6840    -0.1940 H     1 <1>   0.1500 
@<TRIPOS>BOND
  1   1   2  1   
  2   1   3  1   
  3   2   4  2   
  4   2   5  1   
  5   3   6  2   
  6   3   7  1   
  7   4   6  1   
  8   5   8  am  
  9   5  31  1   
 10   7   9  1   
 11   7  32  1   
 12   7  33  1   
 13   8  10  2   
 14   8  11  1   
 15   9  12  ar  
 16   9  13  ar  
 17  11  14  1   
 18  11  15  1   
 19  11  34  1   
 20  12  16  ar  
 21  12  35  1   
 22  13  17  ar  
 23  13  36  1   
 24  14  18  1   
 25  14  37  1   
 26  14  38  1   
 27  15  19  1   
 28  15  39  1   
 29  15  40  1   
 30  16  20  ar  
 31  16  41  1   
 32  17  20  ar  
 33  17  42  1   
 34  18  21  1   
 35  18  43  1   
 36  18  44  1   
 37  19  21  1   
 38  19  45  1   
 39  19  46  1   
 40  20  22  1   
 41  21  23  am  
 42  22  24  1   
 43  23  25  2   
 44  23  26  1   
 45  24  47  1   
 46  24  48  1   
 47  24  49  1   
 48  26  27  1   
 49  26  28  2   
 50  27  29  1   
 51  28  30  1   
 52  28  50  1   
 53  29  30  2   
 54  29  51  1   
 55  30  52  1   
@<TRIPOS>SUBSTRUCTURE
  1 ****   5 GROUP 4 **** **** 0

# MOE 2024.06 (io_trps.svl 2023.06)
