@<TRIPOS>MOLECULE
8-(2,5-Dimethoxy-phenyl)-1,6-dimethyl-3-(2-methyl-allyl)-5,6,7,8-tetrahydro-1H-1
59 62 1 0 0 
SMALL
USER_CHARGES


@<TRIPOS>ATOM
  1 O        0.9920     1.8350     3.2480 O.2   1 <1>  -0.5740 
  2 C        1.8030     1.8080     2.3440 C.2   1 <1>   0.6870 
  3 N        1.9440     2.8950     1.4900 N.am  1 <1>  -0.4250 
  4 N        2.6170     0.6930     2.1880 N.am  1 <1>  -0.4410 
  5 C        2.9740     2.9580     0.5660 C.2   1 <1>   0.7000 
  6 C        0.9130     3.9640     1.5160 C.3   1 <1>   0.2730 
  7 C        3.6170     0.7480     1.2370 C.2   1 <1>   0.4210 
  8 C        2.4360    -0.5140     3.0470 C.3   1 <1>   0.0530 
  9 O        3.1550     3.9540    -0.1150 O.2   1 <1>  -0.5740 
 10 C        3.8290     1.8180     0.4410 C.2   1 <1>   0.2720 
 11 C       -0.2640     3.5600     0.6350 C.2   1 <1>  -0.2820 
 12 N        4.5520    -0.1980     0.9480 N.pl3 1 <1>  -0.7030 
 13 N        4.9380     1.4980    -0.3550 N.pl3 1 <1>  -0.7670 
 14 C       -1.4120     3.0950     1.1380 C.2   1 <1>  -0.3050 
 15 C       -0.0480     3.7360    -0.8610 C.3   1 <1>  -0.1080 
 16 C        5.3450     0.2820    -0.0060 C.cat 1 <1>   1.0690 
 17 C        5.5930     2.3540    -1.3670 C.3   1 <1>   0.3490 
 18 N        6.4060    -0.3290    -0.5690 N.pl3 1 <1>  -0.5790 
 19 C        6.4530     1.4770    -2.2950 C.3   1 <1>  -0.0870 
 20 C        6.8360    -1.6270    -0.2160 C.ar  1 <1>   0.3060 
 21 C        7.2770     0.4530    -1.4930 C.3   1 <1>   0.1620 
 22 C        7.3720     2.3430    -3.1690 C.3   1 <1>  -0.2460 
 23 C        7.2000    -1.9510     1.1000 C.ar  1 <1>   0.0760 
 24 C        6.8920    -2.6070    -1.1970 C.ar  1 <1>  -0.1560 
 25 O        7.1260    -0.9710     2.0520 O.3   1 <1>  -0.3670 
 26 C        7.6130    -3.2420     1.4070 C.ar  1 <1>  -0.1560 
 27 C        7.3070    -3.8950    -0.8860 C.ar  1 <1>   0.0760 
 28 C        7.8740    -1.0780     3.2480 C.3   1 <1>   0.0330 
 29 C        7.6640    -4.2040     0.4150 C.ar  1 <1>  -0.1560 
 30 O        7.3870    -4.9030    -1.7910 O.3   1 <1>  -0.3670 
 31 C        7.0890    -4.7010    -3.1550 C.3   1 <1>   0.0330 
 32 H        1.3210     4.9030     1.1820 H     1 <1>   0.0730 
 33 H        0.5730     4.1110     2.5270 H     1 <1>   0.0730 
 34 H        1.4300    -0.5570     3.4280 H     1 <1>   0.0730 
 35 H        3.1180    -0.4720     3.8790 H     1 <1>   0.0730 
 36 H        2.6160    -1.4090     2.4790 H     1 <1>   0.0730 
 37 H        4.7500    -1.0660     1.4390 H     1 <1>   0.4460 
 38 H       -2.2640     2.8090     0.5460 H     1 <1>   0.1440 
 39 H       -1.5970     2.9580     2.1910 H     1 <1>   0.1440 
 40 H        0.2270     4.7530    -1.0800 H     1 <1>   0.0730 
 41 H       -0.9500     3.5080    -1.4020 H     1 <1>   0.0730 
 42 H        0.7270     3.0830    -1.2150 H     1 <1>   0.0730 
 43 H        6.2090     3.0800    -0.8630 H     1 <1>   0.0730 
 44 H        4.8490     2.8800    -1.9430 H     1 <1>   0.0730 
 45 H        5.7940     0.9380    -2.9550 H     1 <1>   0.0730 
 46 H        7.7830    -0.2110    -2.1740 H     1 <1>   0.0730 
 47 H        8.0280     0.9610    -0.9090 H     1 <1>   0.0730 
 48 H        8.0640     2.9060    -2.5660 H     1 <1>   0.0730 
 49 H        6.7920     3.0350    -3.7570 H     1 <1>   0.0730 
 50 H        7.9370     1.7260    -3.8470 H     1 <1>   0.0730 
 51 H        6.6060    -2.3530    -2.1980 H     1 <1>   0.1440 
 52 H        7.8960    -3.5270     2.4040 H     1 <1>   0.1440 
 53 H        7.8150    -0.1390     3.7680 H     1 <1>   0.0730 
 54 H        8.9000    -1.2930     3.0040 H     1 <1>   0.0730 
 55 H        7.4550    -1.8570     3.8600 H     1 <1>   0.0730 
 56 H        7.9840    -5.2060     0.6430 H     1 <1>   0.1440 
 57 H        7.2440    -5.6320    -3.6710 H     1 <1>   0.0730 
 58 H        7.7510    -3.9520    -3.5520 H     1 <1>   0.0730 
 59 H        6.0610    -4.4010    -3.2500 H     1 <1>   0.0730 
@<TRIPOS>BOND
  1   1   2  2   
  2   2   3  am  
  3   2   4  am  
  4   3   5  am  
  5   3   6  1   
  6   4   7  1   
  7   4   8  1   
  8   5   9  2   
  9   5  10  1   
 10   6  11  1   
 11   6  32  1   
 12   6  33  1   
 13   7  10  2   
 14   7  12  1   
 15   8  34  1   
 16   8  35  1   
 17   8  36  1   
 18  10  13  1   
 19  11  14  2   
 20  11  15  1   
 21  12  16  ar  
 22  12  37  1   
 23  13  16  ar  
 24  13  17  1   
 25  14  38  1   
 26  14  39  1   
 27  15  40  1   
 28  15  41  1   
 29  15  42  1   
 30  16  18  ar  
 31  17  19  1   
 32  17  43  1   
 33  17  44  1   
 34  18  20  1   
 35  18  21  1   
 36  19  21  1   
 37  19  22  1   
 38  19  45  1   
 39  20  23  ar  
 40  20  24  ar  
 41  21  46  1   
 42  21  47  1   
 43  22  48  1   
 44  22  49  1   
 45  22  50  1   
 46  23  25  1   
 47  23  26  ar  
 48  24  27  ar  
 49  24  51  1   
 50  25  28  1   
 51  26  29  ar  
 52  26  52  1   
 53  27  29  ar  
 54  27  30  1   
 55  28  53  1   
 56  28  54  1   
 57  28  55  1   
 58  29  56  1   
 59  30  31  1   
 60  31  57  1   
 61  31  58  1   
 62  31  59  1   
@<TRIPOS>SUBSTRUCTURE
  1 ****  16 GROUP 4 **** **** 0

# MOE 2024.06 (io_trps.svl 2023.06)
