@<TRIPOS>MOLECULE
1-Methanesulfonyl-1,2,3,4-tetrahydro-quinoline-6-carboxylic acid
29 30 1 0 0 
SMALL
USER_CHARGES


@<TRIPOS>ATOM
  1 S       -0.1940    -0.0370     1.0230 S.o2  1 <1>   1.3330 
  2 O        0.0470    -1.1110     1.9560 O.2   1 <1>  -0.6500 
  3 O       -1.1200     1.0150     1.3690 O.2   1 <1>  -0.6500 
  4 N        1.3120     0.7100     0.5800 N.am  1 <1>  -0.6930 
  5 C       -0.7310    -0.7130    -0.5340 C.3   1 <1>  -0.1350 
  6 C        2.5120     0.0170     0.3040 C.ar  1 <1>   0.1990 
  7 C        1.2870     2.1980     0.5910 C.3   1 <1>   0.1960 
  8 C        3.6950     0.7170     0.0350 C.ar  1 <1>  -0.1440 
  9 C        2.5870    -1.3770     0.2630 C.ar  1 <1>  -0.1500 
 10 C        2.3710     2.7940    -0.3030 C.3   1 <1>  -0.1600 
 11 C        4.8650     0.0470    -0.2770 C.ar  1 <1>  -0.1500 
 12 C        3.7350     2.2330     0.0800 C.3   1 <1>  -0.0170 
 13 C        3.7590    -2.0340    -0.0510 C.ar  1 <1>  -0.1500 
 14 C        4.9340    -1.3430    -0.3390 C.ar  1 <1>  -0.1790 
 15 C        6.1690    -2.0350    -0.6830 C.2   1 <1>   0.9790 
 16 O        6.2020    -3.2770    -0.7620 O.co2 1 <1>  -0.9000 
 17 O        7.2130    -1.3960    -0.9120 O.co2 1 <1>  -0.9000 
 18 H       -0.0240    -1.4310    -0.8980 H     1 <1>   0.0800 
 19 H       -0.8290     0.0700    -1.2600 H     1 <1>   0.0800 
 20 H       -1.6820    -1.1940    -0.4160 H     1 <1>   0.0800 
 21 H        1.4180     2.5340     1.6060 H     1 <1>   0.0800 
 22 H        0.3330     2.5550     0.2410 H     1 <1>   0.0800 
 23 H        1.7360    -1.9860     0.4790 H     1 <1>   0.1500 
 24 H        2.3740     3.8640    -0.2040 H     1 <1>   0.0800 
 25 H        2.1550     2.5520    -1.3290 H     1 <1>   0.0800 
 26 H        5.7680     0.5980    -0.4830 H     1 <1>   0.1500 
 27 H        4.4820     2.6060    -0.5980 H     1 <1>   0.0800 
 28 H        3.9960     2.5430     1.0770 H     1 <1>   0.0800 
 29 H        3.7850    -3.1120    -0.0770 H     1 <1>   0.1500 
@<TRIPOS>BOND
  1   1   2  2   
  2   1   3  2   
  3   1   4  am  
  4   1   5  1   
  5   4   6  1   
  6   4   7  1   
  7   5  18  1   
  8   5  19  1   
  9   5  20  1   
 10   6   8  ar  
 11   6   9  ar  
 12   7  10  1   
 13   7  21  1   
 14   7  22  1   
 15   8  11  ar  
 16   8  12  1   
 17   9  13  ar  
 18   9  23  1   
 19  10  12  1   
 20  10  24  1   
 21  10  25  1   
 22  11  14  ar  
 23  11  26  1   
 24  12  27  1   
 25  12  28  1   
 26  13  14  ar  
 27  13  29  1   
 28  14  15  1   
 29  15  16  ar  
 30  15  17  ar  
@<TRIPOS>SUBSTRUCTURE
  1 ****   6 GROUP 4 **** **** 0

# MOE 2024.06 (io_trps.svl 2023.06)
