@<TRIPOS>MOLECULE
1-Isopropyl-5-oxo-pyrrolidine-3-carboxylic acid (5-benzyl-[1,3,4]thiadiazol-2-yl
44 46 1 0 0 
SMALL
USER_CHARGES


@<TRIPOS>ATOM
  1 S        0.1220     0.1910    -0.6470 S.3   1 <1>  -0.0800 
  2 C       -1.2830    -0.2500    -1.5590 C.2   1 <1>   0.4420 
  3 C        0.5310     1.2710    -1.9360 C.2   1 <1>   0.1980 
  4 N       -1.3500     0.3740    -2.6780 N.2   1 <1>  -0.3380 
  5 N       -2.1220    -1.1800    -0.9810 N.am  1 <1>  -0.4940 
  6 N       -0.3120     1.2400    -2.8870 N.2   1 <1>  -0.3380 
  7 C        1.7910     2.1040    -1.8080 C.3   1 <1>   0.1640 
  8 C       -3.2720    -1.7300    -1.4730 C.2   1 <1>   0.5690 
  9 C        1.7500     2.9800    -0.5630 C.ar  1 <1>  -0.1440 
 10 O       -3.7030    -1.4920    -2.5710 O.2   1 <1>  -0.5700 
 11 C       -4.0210    -2.7200    -0.5900 C.3   1 <1>  -0.0190 
 12 C        0.8090     3.9940    -0.4640 C.ar  1 <1>  -0.1500 
 13 C        2.6410     2.7760     0.4810 C.ar  1 <1>  -0.1500 
 14 C       -5.4670    -2.9790    -1.0470 C.3   1 <1>   0.1400 
 15 C       -4.1430    -2.3030     0.8890 C.3   1 <1>  -0.0990 
 16 C        0.7570     4.7930     0.6640 C.ar  1 <1>  -0.1500 
 17 C        2.5900     3.5750     1.6100 C.ar  1 <1>  -0.1500 
 18 N       -6.1900    -3.2430     0.2100 N.am  1 <1>  -0.6600 
 19 C       -5.4710    -2.8740     1.2980 C.2   1 <1>   0.5690 
 20 C        1.6480     4.5840     1.7020 C.ar  1 <1>  -0.1500 
 21 C       -7.5700    -3.7730     0.1630 C.3   1 <1>   0.2200 
 22 O       -5.7940    -2.9630     2.4560 O.2   1 <1>  -0.5700 
 23 C       -8.5390    -2.7530     0.7560 C.3   1 <1>  -0.2400 
 24 C       -7.6360    -5.1120     0.8930 C.3   1 <1>  -0.2400 
 25 H       -1.8380    -1.4810    -0.0550 H     1 <1>   0.3700 
 26 H        1.8880     2.7290    -2.6780 H     1 <1>   0.0800 
 27 H        2.6410     1.4470    -1.7790 H     1 <1>   0.0800 
 28 H       -3.5020    -3.6600    -0.6390 H     1 <1>   0.0800 
 29 H        0.1080     4.1640    -1.2650 H     1 <1>   0.1500 
 30 H        3.3790     1.9950     0.4260 H     1 <1>   0.1500 
 31 H       -5.5200    -3.8220    -1.7140 H     1 <1>   0.0800 
 32 H       -5.8940    -2.1100    -1.5210 H     1 <1>   0.0800 
 33 H       -4.1940    -1.2340     1.0000 H     1 <1>   0.0800 
 34 H       -3.3550    -2.7080     1.4950 H     1 <1>   0.0800 
 35 H        0.0240     5.5780     0.7340 H     1 <1>   0.1500 
 36 H        3.2830     3.4130     2.4170 H     1 <1>   0.1500 
 37 H        1.6080     5.2060     2.5800 H     1 <1>   0.1500 
 38 H       -7.8400    -3.9350    -0.8680 H     1 <1>   0.0800 
 39 H       -8.3340    -2.5960     1.8000 H     1 <1>   0.0800 
 40 H       -9.5490    -3.1090     0.6610 H     1 <1>   0.0800 
 41 H       -8.4570    -1.8170     0.2340 H     1 <1>   0.0800 
 42 H       -7.4170    -4.9870     1.9380 H     1 <1>   0.0800 
 43 H       -6.9330    -5.8020     0.4640 H     1 <1>   0.0800 
 44 H       -8.6220    -5.5290     0.8030 H     1 <1>   0.0800 
@<TRIPOS>BOND
  1   1   2  1   
  2   1   3  1   
  3   2   4  2   
  4   2   5  1   
  5   3   6  2   
  6   3   7  1   
  7   4   6  1   
  8   5   8  am  
  9   5  25  1   
 10   7   9  1   
 11   7  26  1   
 12   7  27  1   
 13   8  10  2   
 14   8  11  1   
 15   9  12  ar  
 16   9  13  ar  
 17  11  14  1   
 18  11  15  1   
 19  11  28  1   
 20  12  16  ar  
 21  12  29  1   
 22  13  17  ar  
 23  13  30  1   
 24  14  18  1   
 25  14  31  1   
 26  14  32  1   
 27  15  19  1   
 28  15  33  1   
 29  15  34  1   
 30  16  20  ar  
 31  16  35  1   
 32  17  20  ar  
 33  17  36  1   
 34  18  19  am  
 35  18  21  1   
 36  19  22  2   
 37  20  37  1   
 38  21  23  1   
 39  21  24  1   
 40  21  38  1   
 41  23  39  1   
 42  23  40  1   
 43  23  41  1   
 44  24  42  1   
 45  24  43  1   
 46  24  44  1   
@<TRIPOS>SUBSTRUCTURE
  1 ****   5 GROUP 4 **** **** 0

# MOE 2024.06 (io_trps.svl 2023.06)
