@<TRIPOS>MOLECULE
Morpholine-4-carboxylic acid [3-(4-methoxy-phenyl)-[1,2,4]oxadiazol-5-ylmethyl]-
44 46 1 0 0 
SMALL
USER_CHARGES


@<TRIPOS>ATOM
  1 O        0.0740     0.2580     0.3780 O.2   1 <1>  -0.5700 
  2 C        0.3960     1.3970     0.0920 C.2   1 <1>   0.6900 
  3 N       -0.5140     2.4130     0.2110 N.am  1 <1>  -0.6600 
  4 N        1.6680     1.6430    -0.3470 N.am  1 <1>  -0.6600 
  5 C       -0.1520     3.7680     0.7150 C.3   1 <1>   0.1400 
  6 C       -1.9710     2.1240     0.3180 C.3   1 <1>   0.1400 
  7 C        2.7620     0.6960     0.0200 C.3   1 <1>   0.3200 
  8 C        1.9540     2.5530    -1.4910 C.3   1 <1>   0.0600 
  9 C       -1.0660     4.8330     0.0870 C.3   1 <1>   0.1200 
 10 C       -2.7930     3.2790    -0.2770 C.3   1 <1>   0.1200 
 11 C        4.0340     1.4340     0.4070 C.2   1 <1>   0.2980 
 12 O       -2.4130     4.5060     0.2840 O.3   1 <1>  -0.5600 
 13 O        4.0270     2.1560     1.4970 O.3   1 <1>  -0.0190 
 14 N        5.1280     1.4340    -0.2390 N.2   1 <1>  -0.5650 
 15 N        5.2190     2.6620     1.5480 N.2   1 <1>  -0.4100 
 16 C        5.8750     2.2380     0.5260 C.2   1 <1>   0.4620 
 17 C        7.2530     2.5710     0.2040 C.ar  1 <1>   0.0540 
 18 C        8.0030     3.4200     1.0210 C.ar  1 <1>  -0.1500 
 19 C        7.8870     2.0610    -0.9320 C.ar  1 <1>  -0.1500 
 20 C        9.3130     3.7490     0.7250 C.ar  1 <1>  -0.1500 
 21 C        9.1960     2.3840    -1.2350 C.ar  1 <1>  -0.1500 
 22 C        9.9210     3.2290    -0.4130 C.ar  1 <1>   0.0820 
 23 O       11.1970     3.4980    -0.7800 O.3   1 <1>  -0.3630 
 24 C       12.0200     4.3460    -0.0110 C.3   1 <1>   0.0400 
 25 H        0.8760     3.9950     0.4980 H     1 <1>   0.0800 
 26 H       -0.2740     3.7880     1.7840 H     1 <1>   0.0800 
 27 H       -2.2320     1.9920     1.3540 H     1 <1>   0.0800 
 28 H       -2.2020     1.2110    -0.2040 H     1 <1>   0.0800 
 29 H        2.9630     0.0510    -0.8160 H     1 <1>   0.0800 
 30 H        2.4590     0.0820     0.8510 H     1 <1>   0.0800 
 31 H        1.0400     2.9770    -1.8710 H     1 <1>   0.0800 
 32 H        2.4330     2.0070    -2.2850 H     1 <1>   0.0800 
 33 H        2.6040     3.3490    -1.1700 H     1 <1>   0.0800 
 34 H       -0.8820     4.9150    -0.9700 H     1 <1>   0.0800 
 35 H       -0.8900     5.7900     0.5450 H     1 <1>   0.0800 
 36 H       -3.8390     3.1340    -0.0720 H     1 <1>   0.0800 
 37 H       -2.6530     3.3300    -1.3430 H     1 <1>   0.0800 
 38 H        7.5490     3.8320     1.9060 H     1 <1>   0.1500 
 39 H        7.3470     1.4020    -1.5890 H     1 <1>   0.1500 
 40 H        9.8430     4.4060     1.3880 H     1 <1>   0.1500 
 41 H        9.6670     1.9830    -2.1150 H     1 <1>   0.1500 
 42 H       12.9780     4.4080    -0.4930 H     1 <1>   0.0800 
 43 H       12.1330     3.9250     0.9730 H     1 <1>   0.0800 
 44 H       11.5700     5.3210     0.0350 H     1 <1>   0.0800 
@<TRIPOS>BOND
  1   1   2  2   
  2   2   3  am  
  3   2   4  am  
  4   3   5  1   
  5   3   6  1   
  6   4   7  1   
  7   4   8  1   
  8   5   9  1   
  9   5  25  1   
 10   5  26  1   
 11   6  10  1   
 12   6  27  1   
 13   6  28  1   
 14   7  11  1   
 15   7  29  1   
 16   7  30  1   
 17   8  31  1   
 18   8  32  1   
 19   8  33  1   
 20   9  12  1   
 21   9  34  1   
 22   9  35  1   
 23  10  12  1   
 24  10  36  1   
 25  10  37  1   
 26  11  13  1   
 27  11  14  2   
 28  13  15  1   
 29  14  16  1   
 30  15  16  2   
 31  16  17  1   
 32  17  18  ar  
 33  17  19  ar  
 34  18  20  ar  
 35  18  38  1   
 36  19  21  ar  
 37  19  39  1   
 38  20  22  ar  
 39  20  40  1   
 40  21  22  ar  
 41  21  41  1   
 42  22  23  1   
 43  23  24  1   
 44  24  42  1   
 45  24  43  1   
 46  24  44  1   
@<TRIPOS>SUBSTRUCTURE
  1 ****  11 GROUP 4 **** **** 0

# MOE 2024.06 (io_trps.svl 2023.06)
