@<TRIPOS>MOLECULE
N-(4-Methoxy-phenyl)-2-(5-propyl-[1,3,4]oxadiazol-2-ylsulfanyl)-acetamide
38 39 1 0 0 
SMALL
USER_CHARGES


@<TRIPOS>ATOM
  1 S       -1.0600     1.3830     0.0630 S.3   1 <1>  -0.2860 
  2 C        0.6360     1.8790     0.3310 C.2   1 <1>   0.5340 
  3 C       -1.5690     0.7580     1.7400 C.3   1 <1>   0.1310 
  4 O        1.3060     2.3770    -0.6510 O.3   1 <1>  -0.2800 
  5 N        1.2860     1.7920     1.4250 N.2   1 <1>  -0.3380 
  6 C       -3.0060     0.2610     1.7540 C.2   1 <1>   0.5690 
  7 C        2.4590     2.6120    -0.1070 C.2   1 <1>   0.2980 
  8 N        2.4950     2.2790     1.1330 N.2   1 <1>  -0.3380 
  9 O       -3.5060     0.0450     2.8300 O.2   1 <1>  -0.5700 
 10 N       -3.6620     0.0830     0.5640 N.am  1 <1>  -0.5470 
 11 C        3.5630     3.2200    -0.9590 C.3   1 <1>   0.0200 
 12 C       -4.9570    -0.3780     0.2720 C.ar  1 <1>   0.1170 
 13 C        4.8730     3.4460    -0.1860 C.3   1 <1>  -0.1600 
 14 C       -5.7140    -1.1380     1.1590 C.ar  1 <1>  -0.1500 
 15 C       -5.5050    -0.0760    -0.9700 C.ar  1 <1>  -0.1500 
 16 C        5.9570     4.0590    -1.0790 C.3   1 <1>  -0.2400 
 17 C       -6.9800    -1.5760     0.8140 C.ar  1 <1>  -0.1500 
 18 C       -6.7700    -0.5120    -1.3210 C.ar  1 <1>  -0.1500 
 19 C       -7.5190    -1.2680    -0.4240 C.ar  1 <1>   0.0820 
 20 O       -8.7680    -1.7380    -0.6830 O.3   1 <1>  -0.3630 
 21 C       -9.4090    -1.4600    -1.9070 C.3   1 <1>   0.0400 
 22 H       -1.4520     1.5720     2.4320 H     1 <1>   0.0800 
 23 H       -0.8980    -0.0390     2.0020 H     1 <1>   0.0800 
 24 H       -3.1270     0.3830    -0.2520 H     1 <1>   0.3700 
 25 H        3.2110     4.1590    -1.3470 H     1 <1>   0.0800 
 26 H        3.7470     2.5640    -1.7900 H     1 <1>   0.0800 
 27 H        5.2240     2.5060     0.2050 H     1 <1>   0.0800 
 28 H        4.6870     4.1010     0.6490 H     1 <1>   0.0800 
 29 H       -5.3190    -1.3960     2.1240 H     1 <1>   0.1500 
 30 H       -4.9380     0.5090    -1.6710 H     1 <1>   0.1500 
 31 H        6.1790     3.4080    -1.9070 H     1 <1>   0.0800 
 32 H        6.8600     4.2040    -0.5110 H     1 <1>   0.0800 
 33 H        5.6390     5.0130    -1.4610 H     1 <1>   0.0800 
 34 H       -7.5580    -2.1600     1.5060 H     1 <1>   0.1500 
 35 H       -7.1560    -0.2550    -2.2890 H     1 <1>   0.1500 
 36 H      -10.3800    -1.9190    -1.8870 H     1 <1>   0.0800 
 37 H       -8.8250    -1.8750    -2.7090 H     1 <1>   0.0800 
 38 H       -9.5110    -0.3940    -2.0140 H     1 <1>   0.0800 
@<TRIPOS>BOND
  1   1   2  1   
  2   1   3  1   
  3   2   4  1   
  4   2   5  2   
  5   3   6  1   
  6   3  22  1   
  7   3  23  1   
  8   4   7  1   
  9   5   8  1   
 10   6   9  2   
 11   6  10  am  
 12   7   8  2   
 13   7  11  1   
 14  10  12  1   
 15  10  24  1   
 16  11  13  1   
 17  11  25  1   
 18  11  26  1   
 19  12  14  ar  
 20  12  15  ar  
 21  13  16  1   
 22  13  27  1   
 23  13  28  1   
 24  14  17  ar  
 25  14  29  1   
 26  15  18  ar  
 27  15  30  1   
 28  16  31  1   
 29  16  32  1   
 30  16  33  1   
 31  17  19  ar  
 32  17  34  1   
 33  18  19  ar  
 34  18  35  1   
 35  19  20  1   
 36  20  21  1   
 37  21  36  1   
 38  21  37  1   
 39  21  38  1   
@<TRIPOS>SUBSTRUCTURE
  1 ****   1 GROUP 4 **** **** 0

# MOE 2024.06 (io_trps.svl 2023.06)
