@<TRIPOS>MOLECULE
3-Ethyl-8-(2-methoxy-5-methyl-phenyl)-1-methyl-7,8-dihydro-1H,6H-imidazo[2,1-f]p
48 51 1 0 0 
SMALL
USER_CHARGES


@<TRIPOS>ATOM
  1 O        0.5600     2.1170    -1.7030 O.2   1 <1>  -0.5750 
  2 C        1.5140     1.9230    -0.9770 C.2   1 <1>   0.6860 
  3 N        1.8370     2.8420     0.0190 N.am  1 <1>  -0.4260 
  4 N        2.2840     0.7790    -1.1490 N.am  1 <1>  -0.4420 
  5 C        2.9350     2.6500     0.8480 C.2   1 <1>   0.6990 
  6 C        1.0080     4.0720     0.1780 C.3   1 <1>   0.1320 
  7 C        3.3840     0.6060    -0.3330 C.2   1 <1>   0.4200 
  8 C        1.9450    -0.2230    -2.2020 C.3   1 <1>   0.0520 
  9 O        3.2160     3.4490     1.7260 O.2   1 <1>  -0.5750 
 10 C        3.7310     1.4830     0.6390 C.2   1 <1>   0.2700 
 11 C        1.5780     5.1980    -0.6840 C.3   1 <1>  -0.2470 
 12 N        4.2960    -0.4130    -0.3510 N.pl3 1 <1>  -0.7040 
 13 N        4.8930     0.9610     1.2160 N.pl3 1 <1>  -0.7670 
 14 C        5.1910    -0.1520     0.5910 C.cat 1 <1>   1.0690 
 15 C        5.8880     1.3060     2.2420 C.3   1 <1>   0.3480 
 16 N        6.3020    -0.7420     1.0410 N.pl3 1 <1>  -0.5800 
 17 C        6.8720     0.1150     2.1300 C.3   1 <1>   0.1600 
 18 C        6.9130    -1.9300     0.5830 C.ar  1 <1>   0.3040 
 19 C        7.0580    -2.2230    -0.7830 C.ar  1 <1>   0.0740 
 20 C        7.3870    -2.8440     1.5160 C.ar  1 <1>  -0.1580 
 21 O        6.5980    -1.3220    -1.7020 O.3   1 <1>  -0.3690 
 22 C        7.6640    -3.4130    -1.1730 C.ar  1 <1>  -0.1580 
 23 C        7.9910    -4.0260     1.1250 C.ar  1 <1>  -0.1510 
 24 C        7.0740    -1.3410    -3.0340 C.3   1 <1>   0.0320 
 25 C        8.1280    -4.3040    -0.2230 C.ar  1 <1>  -0.1580 
 26 C        8.5050    -5.0130     2.1580 C.3   1 <1>  -0.1050 
 27 H        0.9940     4.3770     1.2110 H     1 <1>   0.0720 
 28 H       -0.0100     3.8720    -0.1130 H     1 <1>   0.0720 
 29 H        0.8950    -0.1810    -2.4380 H     1 <1>   0.0720 
 30 H        2.1700    -1.2180    -1.8620 H     1 <1>   0.0720 
 31 H        2.5070    -0.0120    -3.0960 H     1 <1>   0.0720 
 32 H        2.5810     5.4380    -0.3810 H     1 <1>   0.0720 
 33 H        0.9720     6.0790    -0.5690 H     1 <1>   0.0720 
 34 H        1.5690     4.9180    -1.7230 H     1 <1>   0.0720 
 35 H        4.4220    -1.1680    -1.0240 H     1 <1>   0.4440 
 36 H        5.4340     1.3550     3.2180 H     1 <1>   0.0720 
 37 H        6.3700     2.2410     2.0120 H     1 <1>   0.0720 
 38 H        6.9160    -0.4240     3.0600 H     1 <1>   0.0720 
 39 H        7.8580     0.4560     1.8630 H     1 <1>   0.0720 
 40 H        7.2820    -2.6420     2.5650 H     1 <1>   0.1420 
 41 H        7.7880    -3.6740    -2.2080 H     1 <1>   0.1420 
 42 H        6.7220    -0.4550    -3.5330 H     1 <1>   0.0720 
 43 H        6.6940    -2.2140    -3.5340 H     1 <1>   0.0720 
 44 H        8.1510    -1.3460    -3.0230 H     1 <1>   0.0720 
 45 H        8.5980    -5.2210    -0.5380 H     1 <1>   0.1420 
 46 H        7.9950    -4.8880     3.0960 H     1 <1>   0.0720 
 47 H        9.5590    -4.8640     2.3130 H     1 <1>   0.0720 
 48 H        8.3470    -6.0230     1.8210 H     1 <1>   0.0720 
@<TRIPOS>BOND
  1   1   2  2   
  2   2   3  am  
  3   2   4  am  
  4   3   5  am  
  5   3   6  1   
  6   4   7  1   
  7   4   8  1   
  8   5   9  2   
  9   5  10  1   
 10   6  11  1   
 11   6  27  1   
 12   6  28  1   
 13   7  10  2   
 14   7  12  1   
 15   8  29  1   
 16   8  30  1   
 17   8  31  1   
 18  10  13  1   
 19  11  32  1   
 20  11  33  1   
 21  11  34  1   
 22  12  14  ar  
 23  12  35  1   
 24  13  14  ar  
 25  13  15  1   
 26  14  16  ar  
 27  15  17  1   
 28  15  36  1   
 29  15  37  1   
 30  16  17  1   
 31  16  18  1   
 32  17  38  1   
 33  17  39  1   
 34  18  19  ar  
 35  18  20  ar  
 36  19  21  1   
 37  19  22  ar  
 38  20  23  ar  
 39  20  40  1   
 40  21  24  1   
 41  22  25  ar  
 42  22  41  1   
 43  23  25  ar  
 44  23  26  1   
 45  24  42  1   
 46  24  43  1   
 47  24  44  1   
 48  25  45  1   
 49  26  46  1   
 50  26  47  1   
 51  26  48  1   
@<TRIPOS>SUBSTRUCTURE
  1 ****  14 GROUP 4 **** **** 0

# MOE 2024.06 (io_trps.svl 2023.06)
