@<TRIPOS>MOLECULE
[5-(5-Chloro-2-methoxy-phenyl)-[1,3,4]oxadiazol-2-ylsulfanyl]-acetic acid ethyl
34 35 1 0 0 
SMALL
USER_CHARGES


@<TRIPOS>ATOM
  1 CL       1.6770     0.5540     3.2650 Cl    1 <1>  -0.1770 
  2 C        2.8250     0.9370     2.0070 C.ar  1 <1>   0.1770 
  3 C        3.1370     2.2550     1.7530 C.ar  1 <1>  -0.1500 
  4 C        3.4010    -0.0900     1.2850 C.ar  1 <1>  -0.1500 
  5 C        4.0470     2.5920     0.7490 C.ar  1 <1>   0.0530 
  6 C        4.3130     0.2180     0.2940 C.ar  1 <1>  -0.1500 
  7 C        4.6450     1.5460     0.0260 C.ar  1 <1>   0.0830 
  8 C        4.3380     3.9860     0.5020 C.2   1 <1>   0.4250 
  9 O        5.5600     1.8750    -0.9220 O.3   1 <1>  -0.3630 
 10 O        4.5130     4.4490    -0.7040 O.3   1 <1>  -0.2800 
 11 N        4.4300     4.9360     1.3810 N.2   1 <1>  -0.3380 
 12 C        6.2020     0.9160    -1.7330 C.3   1 <1>   0.0400 
 13 C        4.7390     5.6980    -0.5110 C.2   1 <1>   0.5340 
 14 N        4.6970     6.0560     0.7130 N.2   1 <1>  -0.3380 
 15 S        5.0610     6.7450    -1.9240 S.3   1 <1>  -0.2860 
 16 C        5.6760     8.3200    -1.1560 C.3   1 <1>   0.1310 
 17 C        7.1500     8.2030    -0.8140 C.2   1 <1>   0.6590 
 18 O        7.9460     9.0310    -1.1770 O.2   1 <1>  -0.5700 
 19 O        7.5090     7.1510    -0.0910 O.3   1 <1>  -0.4300 
 20 C        8.8410     6.9200     0.2940 C.3   1 <1>   0.1200 
 21 C        8.8760     5.6080     1.0710 C.3   1 <1>  -0.2400 
 22 H        2.6690     3.0270     2.3370 H     1 <1>   0.1500 
 23 H        3.1370    -1.1100     1.5030 H     1 <1>   0.1500 
 24 H        4.7570    -0.5920    -0.2550 H     1 <1>   0.1500 
 25 H        6.8580     1.4370    -2.4080 H     1 <1>   0.0800 
 26 H        5.4580     0.3770    -2.2930 H     1 <1>   0.0800 
 27 H        6.7730     0.2540    -1.1080 H     1 <1>   0.0800 
 28 H        5.0930     8.5080    -0.2750 H     1 <1>   0.0800 
 29 H        5.5230     9.1030    -1.8750 H     1 <1>   0.0800 
 30 H        9.1670     7.7440     0.9060 H     1 <1>   0.0800 
 31 H        9.4490     6.8630    -0.5930 H     1 <1>   0.0800 
 32 H        8.2470     5.6770     1.9410 H     1 <1>   0.0800 
 33 H        9.8810     5.3990     1.3880 H     1 <1>   0.0800 
 34 H        8.5360     4.8000     0.4480 H     1 <1>   0.0800 
@<TRIPOS>BOND
  1   1   2  1   
  2   2   3  ar  
  3   2   4  ar  
  4   3   5  ar  
  5   3  22  1   
  6   4   6  ar  
  7   4  23  1   
  8   5   7  ar  
  9   5   8  1   
 10   6   7  ar  
 11   6  24  1   
 12   7   9  1   
 13   8  10  1   
 14   8  11  2   
 15   9  12  1   
 16  10  13  1   
 17  11  14  1   
 18  12  25  1   
 19  12  26  1   
 20  12  27  1   
 21  13  14  2   
 22  13  15  1   
 23  15  16  1   
 24  16  17  1   
 25  16  28  1   
 26  16  29  1   
 27  17  18  2   
 28  17  19  1   
 29  19  20  1   
 30  20  21  1   
 31  20  30  1   
 32  20  31  1   
 33  21  32  1   
 34  21  33  1   
 35  21  34  1   
@<TRIPOS>SUBSTRUCTURE
  1 ****   8 GROUP 4 **** **** 0

# MOE 2024.06 (io_trps.svl 2023.06)
