@<TRIPOS>MOLECULE
N-Cyclohexyl-N-(3-m-tolyl-[1,2,4]oxadiazol-5-ylmethyl)-acetamide
46 48 1 0 0 
SMALL
USER_CHARGES


@<TRIPOS>ATOM
  1 O        0.7130     1.1310     2.4250 O.2   1 <1>  -0.5700 
  2 C        0.7050     2.1800     1.8290 C.2   1 <1>   0.5690 
  3 N        1.5940     2.4220     0.8080 N.am  1 <1>  -0.6600 
  4 C       -0.3510     3.1680     2.2730 C.3   1 <1>  -0.1790 
  5 C        1.7730     3.6600    -0.0190 C.3   1 <1>   0.2200 
  6 C        2.5820     1.3440     0.4550 C.3   1 <1>   0.3200 
  7 C        2.4300     4.7990     0.7750 C.3   1 <1>  -0.1600 
  8 C        0.4900     4.1130    -0.7310 C.3   1 <1>  -0.1600 
  9 C        4.0160     1.7630     0.7490 C.2   1 <1>   0.2980 
 10 C        2.7070     6.0020    -0.1390 C.3   1 <1>  -0.1600 
 11 C        0.7860     5.3070    -1.6510 C.3   1 <1>  -0.1600 
 12 O        4.3930     1.8750     1.9950 O.3   1 <1>  -0.0190 
 13 N        4.9050     2.0350    -0.1170 N.2   1 <1>  -0.5650 
 14 C        1.4350     6.4590    -0.8680 C.3   1 <1>  -0.1600 
 15 N        5.6280     2.2580     1.9170 N.2   1 <1>  -0.4100 
 16 C        5.9370     2.3550     0.6720 C.2   1 <1>   0.4620 
 17 C        7.2300     2.7620     0.1470 C.ar  1 <1>   0.0540 
 18 C        8.2890     3.0830     0.9990 C.ar  1 <1>  -0.1500 
 19 C        7.4700     2.8530    -1.2260 C.ar  1 <1>  -0.1500 
 20 C        9.5260     3.4760     0.5160 C.ar  1 <1>  -0.1440 
 21 C        8.7010     3.2430    -1.7200 C.ar  1 <1>  -0.1500 
 22 C        9.7290     3.5540    -0.8500 C.ar  1 <1>  -0.1500 
 23 C       10.6590     3.8180     1.4670 C.3   1 <1>  -0.0970 
 24 H        0.0300     4.1650     2.3200 H     1 <1>   0.0800 
 25 H       -0.6960     2.9000     3.2540 H     1 <1>   0.0800 
 26 H       -1.1870     3.1230     1.6020 H     1 <1>   0.0800 
 27 H        2.4640     3.4190    -0.8100 H     1 <1>   0.0800 
 28 H        2.4940     1.1240    -0.5930 H     1 <1>   0.0800 
 29 H        2.3830     0.4310     0.9870 H     1 <1>   0.0800 
 30 H        3.3600     4.4610     1.1960 H     1 <1>   0.0800 
 31 H        1.7980     5.1200     1.5790 H     1 <1>   0.0800 
 32 H       -0.2520     4.4260    -0.0250 H     1 <1>   0.0800 
 33 H        0.0940     3.3010    -1.3140 H     1 <1>   0.0800 
 34 H        3.4550     5.7310    -0.8650 H     1 <1>   0.0800 
 35 H        3.1000     6.8160     0.4460 H     1 <1>   0.0800 
 36 H       -0.1290     5.6500    -2.1030 H     1 <1>   0.0800 
 37 H        1.4470     4.9980    -2.4430 H     1 <1>   0.0800 
 38 H        1.6780     7.2610    -1.5440 H     1 <1>   0.0800 
 39 H        0.7310     6.8410    -0.1480 H     1 <1>   0.0800 
 40 H        8.1340     3.0220     2.0620 H     1 <1>   0.1500 
 41 H        6.6820     2.6140    -1.9170 H     1 <1>   0.1500 
 42 H        8.8590     3.3040    -2.7830 H     1 <1>   0.1500 
 43 H       10.6860     3.8570    -1.2400 H     1 <1>   0.1500 
 44 H       10.3070     3.8690     2.4820 H     1 <1>   0.0800 
 45 H       11.0830     4.7710     1.2060 H     1 <1>   0.0800 
 46 H       11.4250     3.0670     1.4060 H     1 <1>   0.0800 
@<TRIPOS>BOND
  1   1   2  2   
  2   2   3  am  
  3   2   4  1   
  4   3   5  1   
  5   3   6  1   
  6   4  24  1   
  7   4  25  1   
  8   4  26  1   
  9   5   7  1   
 10   5   8  1   
 11   5  27  1   
 12   6   9  1   
 13   6  28  1   
 14   6  29  1   
 15   7  10  1   
 16   7  30  1   
 17   7  31  1   
 18   8  11  1   
 19   8  32  1   
 20   8  33  1   
 21   9  12  1   
 22   9  13  2   
 23  10  14  1   
 24  10  34  1   
 25  10  35  1   
 26  11  14  1   
 27  11  36  1   
 28  11  37  1   
 29  12  15  1   
 30  13  16  1   
 31  14  38  1   
 32  14  39  1   
 33  15  16  2   
 34  16  17  1   
 35  17  18  ar  
 36  17  19  ar  
 37  18  20  ar  
 38  18  40  1   
 39  19  21  ar  
 40  19  41  1   
 41  20  22  ar  
 42  20  23  1   
 43  21  22  ar  
 44  21  42  1   
 45  22  43  1   
 46  23  44  1   
 47  23  45  1   
 48  23  46  1   
@<TRIPOS>SUBSTRUCTURE
  1 ****  13 GROUP 4 **** **** 0

# MOE 2024.06 (io_trps.svl 2023.06)
