@<TRIPOS>MOLECULE
1-[3-(4-Chloro-phenyl)-[1,2,4]oxadiazol-5-ylmethyl]-3-cyclohexyl-1-methyl-urea
45 47 1 0 0 
SMALL
USER_CHARGES


@<TRIPOS>ATOM
  1 CL      -0.9670     1.4660    -1.3730 Cl    1 <1>  -0.1770 
  2 C       -2.6080     1.1840    -0.8550 C.ar  1 <1>   0.1770 
  3 C       -3.4190     2.2580    -0.5460 C.ar  1 <1>  -0.1500 
  4 C       -3.0790    -0.1110    -0.7580 C.ar  1 <1>  -0.1500 
  5 C       -4.7210     2.0280    -0.1360 C.ar  1 <1>  -0.1500 
  6 C       -4.3830    -0.3290    -0.3470 C.ar  1 <1>  -0.1500 
  7 C       -5.2370     0.7320    -0.0260 C.ar  1 <1>   0.0540 
  8 C       -6.6070     0.5050     0.4040 C.2   1 <1>   0.4620 
  9 N       -7.4510     1.4170     0.7340 N.2   1 <1>  -0.4100 
 10 N       -7.1420    -0.7170     0.4970 N.2   1 <1>  -0.5650 
 11 O       -8.5630     0.8360     1.0570 O.3   1 <1>  -0.0190 
 12 C       -8.3160    -0.4370     0.8940 C.2   1 <1>   0.2980 
 13 C       -9.4310    -1.4350     1.1770 C.3   1 <1>   0.3200 
 14 N      -10.5450    -1.3260     0.1840 N.am  1 <1>  -0.6600 
 15 C      -11.8370    -1.2230     0.6190 C.2   1 <1>   0.6900 
 16 C      -10.1520    -1.4330    -1.2500 C.3   1 <1>   0.0600 
 17 O      -12.1150    -1.4320     1.7850 O.2   1 <1>  -0.5700 
 18 N      -12.8020    -0.8700    -0.2600 N.am  1 <1>  -0.7300 
 19 C      -14.2250    -0.6860     0.0600 C.3   1 <1>   0.2200 
 20 C      -15.0650    -1.4750    -0.9500 C.3   1 <1>  -0.1600 
 21 C      -14.5560     0.8090     0.0130 C.3   1 <1>  -0.1600 
 22 C      -16.5660    -1.2360    -0.7310 C.3   1 <1>  -0.1600 
 23 C      -16.0570     1.0530     0.2330 C.3   1 <1>  -0.1600 
 24 C      -16.9010     0.2610    -0.7750 C.3   1 <1>  -0.1600 
 25 H       -3.0340     3.2580    -0.6280 H     1 <1>   0.1500 
 26 H       -2.4320    -0.9340    -1.0030 H     1 <1>   0.1500 
 27 H       -5.3500     2.8690     0.1040 H     1 <1>   0.1500 
 28 H       -4.7450    -1.3400    -0.2730 H     1 <1>   0.1500 
 29 H       -9.7890    -1.2620     2.1770 H     1 <1>   0.0800 
 30 H       -9.0290    -2.4310     1.1400 H     1 <1>   0.0800 
 31 H       -9.3260    -2.1150    -1.3560 H     1 <1>   0.0800 
 32 H       -9.8560    -0.4650    -1.6180 H     1 <1>   0.0800 
 33 H      -10.9710    -1.8040    -1.8420 H     1 <1>   0.0800 
 34 H      -12.5090    -0.5380    -1.1720 H     1 <1>   0.3700 
 35 H      -14.4270    -1.0610     1.0510 H     1 <1>   0.0800 
 36 H      -14.8530    -2.5240    -0.8430 H     1 <1>   0.0800 
 37 H      -14.8050    -1.1730    -1.9490 H     1 <1>   0.0800 
 38 H      -14.2730     1.2120    -0.9440 H     1 <1>   0.0800 
 39 H      -13.9980     1.3180     0.7780 H     1 <1>   0.0800 
 40 H      -16.8540    -1.6370     0.2260 H     1 <1>   0.0800 
 41 H      -17.1290    -1.7550    -1.4880 H     1 <1>   0.0800 
 42 H      -16.2700     2.1030     0.1380 H     1 <1>   0.0800 
 43 H      -16.3220     0.7520     1.2330 H     1 <1>   0.0800 
 44 H      -17.9460     0.4020    -0.5580 H     1 <1>   0.0800 
 45 H      -16.7190     0.6390    -1.7670 H     1 <1>   0.0800 
@<TRIPOS>BOND
  1   1   2  1   
  2   2   3  ar  
  3   2   4  ar  
  4   3   5  ar  
  5   3  25  1   
  6   4   6  ar  
  7   4  26  1   
  8   5   7  ar  
  9   5  27  1   
 10   6   7  ar  
 11   6  28  1   
 12   7   8  1   
 13   8   9  2   
 14   8  10  1   
 15   9  11  1   
 16  10  12  2   
 17  11  12  1   
 18  12  13  1   
 19  13  14  1   
 20  13  29  1   
 21  13  30  1   
 22  14  15  am  
 23  14  16  1   
 24  15  17  2   
 25  15  18  am  
 26  16  31  1   
 27  16  32  1   
 28  16  33  1   
 29  18  19  1   
 30  18  34  1   
 31  19  20  1   
 32  19  21  1   
 33  19  35  1   
 34  20  22  1   
 35  20  36  1   
 36  20  37  1   
 37  21  23  1   
 38  21  38  1   
 39  21  39  1   
 40  22  24  1   
 41  22  40  1   
 42  22  41  1   
 43  23  24  1   
 44  23  42  1   
 45  23  43  1   
 46  24  44  1   
 47  24  45  1   
@<TRIPOS>SUBSTRUCTURE
  1 ****  12 GROUP 4 **** **** 0

# MOE 2024.06 (io_trps.svl 2023.06)
